<?xml version="1.0" encoding="UTF-8"?>

<!-- generated on 2022-10-31 10:45:01 by Eclipse SUMO duarouter Version v1_14_1+1085-1ed58b92c9a
<configuration xmlns:xsi="http://www.w3.org/2001/XMLSchema-instance" xsi:noNamespaceSchemaLocation="http://sumo.dlr.de/xsd/duarouterConfiguration.xsd">

    <input>
        <net-file value="./net_config/city.net.xml"/>
        <route-files value="./data/city/mobility/test/xml/city_test_mobility.xml"/>
    </input>

    <output>
        <output-file value="./data/city/mobility/sim/xml/mobility_simulator.rou.xml"/>
    </output>

    <processing>
        <repair value="true"/>
    </processing>

    <report>
        <ignore-errors value="true"/>
    </report>

</configuration>
-->

<routes xmlns:xsi="http://www.w3.org/2001/XMLSchema-instance" xsi:noNamespaceSchemaLocation="http://sumo.dlr.de/xsd/routes_file.xsd">
    <vehicle id="driver_0" depart="0.00" departPos="42.80">
        <route edges="gneE82 gneE155 gneE93 gneE166 gneE104 gneE177 gneE115 gneE116 gneE117 gneE118 gneE218 gneE129"/>
    </vehicle>
    <vehicle id="driver_1" depart="4.00" departPos="44.80">
        <route edges="-gneE0 -gneE39 gneE210 -gneE48 -gneE47 -gneE46 -gneE45"/>
    </vehicle>
    <vehicle id="driver_2" depart="4.00" departPos="42.80">
        <route edges="gneE23 gneE24 gneE25 gneE26"/>
    </vehicle>
    <vehicle id="driver_3" depart="5.00" departPos="42.80">
        <route edges="-gneE389 gneE469 gneE379 gneE479 gneE480 gneE481 gneE482 gneE340 -gneE491"/>
    </vehicle>
    <vehicle id="driver_4" depart="7.00" departPos="42.80">
        <route edges="gneE222 -gneE284 -gneE263 -gneE262 -gneE261"/>
    </vehicle>
    <person id="customer_0" depart="11.00" departPos="42.80">
        <stop lane="-gneE159_0" duration="1000.00"/>
    </person>
    <person id="customer_1" depart="11.00" departPos="42.80">
        <stop lane="gneE273_0" duration="1000.00"/>
    </person>
    <vehicle id="driver_5" depart="11.00" departPos="42.80">
        <route edges="gneE440 -gneE395 gneE432 -gneE384 gneE424 gneE425 gneE426 gneE427"/>
    </vehicle>
    <person id="customer_2" depart="12.00" departPos="42.80">
        <stop lane="gneE51_0" duration="1000.00"/>
    </person>
    <vehicle id="driver_6" depart="14.00" departPos="42.80">
        <route edges="gneE488 gneE371 -gneE320 -gneE319 -gneE318 -gneE317 -gneE411"/>
    </vehicle>
    <vehicle id="driver_7" depart="15.00" departPos="42.80">
        <route edges="-gneE290 -gneE264 -gneE283 -gneE257 -gneE276 -gneE250 -gneE269 -gneE243 -gneE149 -gneE121 gneE139"/>
    </vehicle>
    <person id="customer_3" depart="26.00" departPos="42.80">
        <stop lane="-gneE493_0" duration="1000.00"/>
    </person>
    <vehicle id="driver_8" depart="30.00" departPos="42.80">
        <route edges="gneE80 -gneE134 -gneE70 gneE26 gneE27 gneE28 gneE511"/>
    </vehicle>
    <person id="customer_4" depart="32.00" departPos="42.80">
        <stop lane="gneE344_0" duration="1000.00"/>
    </person>
    <vehicle id="driver_9" depart="32.00" departPos="42.80">
        <route edges="-gneE269 gneE244 -gneE274 gneE239 gneE240 gneE241 gneE292"/>
    </vehicle>
    <person id="customer_5" depart="33.00" departPos="44.80">
        <stop lane="gneE499_0" duration="1000.00"/>
    </person>
    <person id="customer_6" depart="41.00" departPos="42.80">
        <stop lane="-gneE74_0" duration="1000.00"/>
    </person>
    <person id="customer_7" depart="48.00" departPos="42.80">
        <stop lane="gneE89_0" duration="1000.00"/>
    </person>
    <person id="customer_8" depart="50.00" departPos="42.80">
        <stop lane="gneE149_0" duration="1000.00"/>
    </person>
    <person id="customer_9" depart="52.00" departPos="42.80">
        <stop lane="-gneE224_0" duration="1000.00"/>
    </person>
    <vehicle id="driver_10" depart="53.00" departPos="42.80">
        <route edges="-gneE220 gneE14 gneE261 -gneE271 gneE256 -gneE276 gneE251 gneE252 gneE253 gneE254 -gneE228"/>
    </vehicle>
    <vehicle id="driver_11" depart="54.00" departPos="42.80">
        <route edges="-gneE558 -gneE537 -gneE563 -gneE530 -gneE568 -gneE567 -gneE566 -gneE511"/>
    </vehicle>
    <person id="customer_10" depart="55.00" departPos="42.80">
        <stop lane="-gneE513_0" duration="1000.00"/>
    </person>
    <vehicle id="driver_12" depart="58.00" departPos="42.80">
        <route edges="gneE340 -gneE491 -gneE350 -gneE481 -gneE359 -gneE471 -gneE470 -gneE469 -gneE388"/>
    </vehicle>
    <person id="customer_11" depart="63.00" departPos="42.80">
        <stop lane="-gneE507_0" duration="1000.00"/>
    </person>
    <person id="customer_12" depart="63.00" departPos="42.80">
        <stop lane="-gneE513_0" duration="1000.00"/>
    </person>
    <vehicle id="driver_13" depart="64.00" departPos="42.80">
        <route edges="gneE378 gneE470 -gneE368 gneE462 -gneE357 -gneE356 -gneE355 gneE436"/>
    </vehicle>
    <vehicle id="driver_14" depart="67.00" departPos="42.80">
        <route edges="gneE60 gneE133 gneE71 gneE144 gneE82 gneE155 gneE93 gneE166 gneE104 gneE105 gneE187 -gneE115"/>
    </vehicle>
    <person id="customer_13" depart="70.00" departPos="42.80">
        <stop lane="-gneE24_0" duration="1000.00"/>
    </person>
    <person id="customer_14" depart="72.00" departPos="42.80">
        <stop lane="gneE185_0" duration="1000.00"/>
    </person>
    <person id="customer_15" depart="74.00" departPos="42.80">
        <stop lane="-gneE543_0" duration="1000.00"/>
    </person>
    <vehicle id="driver_15" depart="76.00" departPos="42.80">
        <route edges="gneE104 -gneE176 -gneE94 -gneE165 -gneE83 -gneE154 -gneE72 -gneE143 -gneE142 -gneE141 -gneE41"/>
    </vehicle>
    <vehicle id="driver_16" depart="77.00" departPos="42.80">
        <route edges="gneE166 gneE104 -gneE176 gneE95 -gneE185 gneE86 -gneE194 gneE77 gneE204"/>
    </vehicle>
    <person id="customer_16" depart="81.00" departPos="42.80">
        <stop lane="-gneE120_0" duration="1000.00"/>
    </person>
    <person id="customer_17" depart="81.00" departPos="42.80">
        <stop lane="-gneE545_0" duration="1000.00"/>
    </person>
    <vehicle id="driver_17" depart="81.00" departPos="42.80">
        <route edges="gneE82 -gneE154 -gneE72 -gneE143 -gneE61 -gneE132 -gneE50 gneE28 gneE511"/>
    </vehicle>
    <person id="customer_18" depart="86.00" departPos="42.80">
        <stop lane="-gneE223_0" duration="1000.00"/>
    </person>
    <person id="customer_19" depart="86.00" departPos="42.80">
        <stop lane="gneE71_0" duration="1000.00"/>
    </person>
    <person id="customer_20" depart="87.00" departPos="42.80">
        <stop lane="-gneE473_0" duration="1000.00"/>
    </person>
    <vehicle id="driver_18" depart="87.00" departPos="42.80">
        <route edges="gneE513 gneE554 gneE555 -gneE525"/>
    </vehicle>
    <person id="customer_21" depart="91.00" departPos="42.80">
        <stop lane="gneE268_0" duration="1000.00"/>
    </person>
    <person id="customer_22" depart="94.00" departPos="42.80">
        <stop lane="gneE253_0" duration="1000.00"/>
    </person>
    <vehicle id="driver_19" depart="97.00" departPos="42.80">
        <route edges="-gneE486 -gneE400 gneE477 -gneE389 gneE469 gneE379"/>
    </vehicle>
    <person id="customer_23" depart="98.00" departPos="42.80">
        <stop lane="-gneE244_0" duration="1000.00"/>
    </person>
    <vehicle id="driver_20" depart="103.00" departPos="42.80">
        <route edges="gneE26 gneE523 gneE568 -gneE529 -gneE25 -gneE24 -gneE510"/>
    </vehicle>
    <vehicle id="driver_21" depart="104.00" departPos="42.80">
        <route edges="-gneE240 gneE280 -gneE245 gneE275 -gneE250 -gneE249 -gneE159 gneE123 gneE169"/>
    </vehicle>
    <vehicle id="driver_22" depart="117.00" departPos="42.80">
        <route edges="gneE76 gneE194 -gneE86 gneE185 -gneE95 gneE176 gneE177 gneE178 -gneE124 -gneE168"/>
    </vehicle>
    <person id="customer_24" depart="119.00" departPos="42.80">
        <stop lane="gneE411_0" duration="1000.00"/>
    </person>
    <vehicle id="driver_23" depart="127.00" departPos="42.80">
        <route edges="-gneE540 -gneE539 -gneE538 -gneE557 gneE532"/>
    </vehicle>
    <vehicle id="driver_24" depart="139.00" departPos="42.80">
        <route edges="gneE569 gneE536 -gneE563 gneE531 -gneE556 gneE526 -gneE549 -gneE548 -gneE547 gneE497 gneE541"/>
    </vehicle>
    <vehicle id="driver_25" depart="152.00" departPos="42.80">
        <route edges="gneE508 -gneE564 gneE537 -gneE557 gneE532 -gneE550 -gneE549"/>
    </vehicle>
    <vehicle id="driver_26" depart="158.00" departPos="42.80">
        <route edges="gneE417 gneE353 -gneE426 gneE364 -gneE434 gneE375 -gneE442 gneE386 -gneE450 gneE397 gneE398 -gneE467 gneE409"/>
    </vehicle>
    <vehicle id="driver_27" depart="158.00" departPos="44.80">
        <route edges="-gneE316 -gneE315 gneE484 -gneE410 gneE476 -gneE399 gneE468 -gneE388 gneE460 -gneE377 gneE452 gneE453"/>
    </vehicle>
    <vehicle id="driver_28" depart="163.00" departPos="42.80">
        <route edges="gneE449 gneE397 gneE459 gneE388 gneE469 gneE379 gneE479 gneE370 gneE489 gneE490 gneE351 gneE323 -gneE341"/>
    </vehicle>
    <person id="customer_25" depart="165.00" departPos="42.80">
        <stop lane="-gneE167_0" duration="1000.00"/>
    </person>
    <person id="customer_26" depart="166.00" departPos="42.80">
        <stop lane="-gneE362_0" duration="1000.00"/>
    </person>
    <vehicle id="driver_29" depart="169.00" departPos="42.80">
        <route edges="gneE301 gneE372 -gneE415 gneE383 -gneE423 gneE394 -gneE431 gneE405 gneE406 gneE407 gneE408"/>
    </vehicle>
    <vehicle id="driver_30" depart="169.00" departPos="42.80">
        <route edges="gneE261 -gneE271 gneE256 -gneE276 gneE251 -gneE281 gneE246 -gneE286 gneE241 gneE292"/>
    </vehicle>
    <person id="customer_27" depart="174.00" departPos="42.80">
        <stop lane="gneE125_0" duration="1000.00"/>
    </person>
    <vehicle id="driver_31" depart="179.00" departPos="42.80">
        <route edges="gneE200 -gneE47 gneE191 -gneE56 gneE182 gneE183 gneE184 gneE185 gneE186 gneE187 gneE188 -gneE125 gneE179"/>
    </vehicle>
    <person id="customer_28" depart="182.00" departPos="42.80">
        <stop lane="gneE247_0" duration="1000.00"/>
    </person>
    <person id="customer_29" depart="184.00" departPos="42.80">
        <stop lane="gneE411_0" duration="1000.00"/>
    </person>
    <vehicle id="driver_32" depart="184.00" departPos="42.80">
        <route edges="gneE429 -gneE232 -gneE231 -gneE230 -gneE229 -gneE254 -gneE293"/>
    </vehicle>
    <person id="customer_30" depart="186.00" departPos="42.80">
        <stop lane="gneE126_0" duration="1000.00"/>
    </person>
    <vehicle id="driver_33" depart="186.00" departPos="42.80">
        <route edges="-gneE348 -gneE463 -gneE357 -gneE453 -gneE366 -gneE443 -gneE375 -gneE433 -gneE384 -gneE383 -gneE382"/>
    </vehicle>
    <person id="customer_31" depart="191.00" departPos="42.80">
        <stop lane="-gneE471_0" duration="1000.00"/>
    </person>
    <person id="customer_32" depart="191.00" departPos="42.80">
        <stop lane="-gneE221_0" duration="1000.00"/>
    </person>
    <vehicle id="driver_34" depart="194.00" departPos="42.80">
        <route edges="gneE510 gneE24 gneE535 -gneE569 gneE530 -gneE562 gneE525 -gneE555 -gneE554 gneE514"/>
    </vehicle>
    <person id="customer_33" depart="196.00" departPos="42.80">
        <stop lane="gneE496_0" duration="1000.00"/>
    </person>
    <vehicle id="driver_35" depart="197.00" departPos="42.80">
        <route edges="gneE123 -gneE168 -gneE113 -gneE157 gneE103"/>
    </vehicle>
    <person id="customer_34" depart="205.00" departPos="42.80">
        <stop lane="-gneE257_0" duration="1000.00"/>
    </person>
    <person id="customer_35" depart="205.00" departPos="42.80">
        <stop lane="gneE96_0" duration="1000.00"/>
    </person>
    <person id="customer_36" depart="207.00" departPos="42.80">
        <stop lane="gneE539_0" duration="1000.00"/>
    </person>
    <vehicle id="driver_36" depart="207.00" departPos="42.80">
        <route edges="gneE527 -gneE543 -gneE521 -gneE548 -gneE514 -gneE513 -gneE512 -gneE511 gneE40"/>
    </vehicle>
    <person id="customer_37" depart="210.00" departPos="42.80">
        <stop lane="gneE247_0" duration="1000.00"/>
    </person>
    <vehicle id="driver_37" depart="211.00" departPos="42.80">
        <route edges="-gneE344 gneE428 gneE334 gneE335 gneE336 gneE337 -gneE464"/>
    </vehicle>
    <vehicle id="driver_38" depart="212.00" departPos="42.80">
        <route edges="gneE523 gneE568 gneE530 gneE531"/>
    </vehicle>
    <person id="customer_38" depart="218.00" departPos="42.80">
        <stop lane="gneE132_0" duration="1000.00"/>
    </person>
    <vehicle id="driver_39" depart="220.00" departPos="42.80">
        <route edges="gneE125 -gneE188 gneE116 -gneE197 -gneE196 -gneE195 -gneE194 -gneE193 -gneE192 -gneE191 -gneE190"/>
    </vehicle>
    <vehicle id="driver_40" depart="222.00" departPos="42.80">
        <route edges="-gneE328 -gneE474 -gneE338 -gneE337 -gneE336 -gneE335 -gneE334 -gneE333 gneE420 -gneE233"/>
    </vehicle>
    <person id="customer_39" depart="231.00" departPos="44.80">
        <stop lane="-gneE325_0" duration="1000.00"/>
    </person>
    <person id="customer_40" depart="231.00" departPos="42.80">
        <stop lane="gneE525_0" duration="1000.00"/>
    </person>
    <person id="customer_41" depart="233.00" departPos="42.80">
        <stop lane="gneE513_0" duration="1000.00"/>
    </person>
    <vehicle id="driver_41" depart="234.00" departPos="42.80">
        <route edges="gneE272 -gneE220 -gneE13 -gneE199 -gneE126 gneE189 gneE220"/>
    </vehicle>
    <person id="customer_42" depart="241.00" departPos="42.80">
        <stop lane="gneE393_0" duration="1000.00"/>
    </person>
    <person id="customer_43" depart="243.00" departPos="42.80">
        <stop lane="gneE26_0" duration="1000.00"/>
    </person>
    <vehicle id="driver_42" depart="243.00" departPos="42.80">
        <route edges="gneE458 -gneE397 gneE450 gneE451 gneE452 gneE453 gneE454"/>
    </vehicle>
    <vehicle id="driver_43" depart="244.00" departPos="42.80">
        <route edges="-gneE448 -gneE406 gneE440 -gneE395 gneE432 -gneE384 gneE424 gneE425 gneE426 gneE427"/>
    </vehicle>
    <person id="customer_44" depart="253.00" departPos="42.80">
        <stop lane="gneE222_0" duration="1000.00"/>
    </person>
    <vehicle id="driver_44" depart="255.00" departPos="42.80">
        <route edges="gneE123 -gneE168 gneE114 -gneE177 gneE105 -gneE186 gneE96 -gneE195 gneE87 -gneE204 gneE78"/>
    </vehicle>
    <vehicle id="driver_45" depart="257.00" departPos="42.80">
        <route edges="gneE285 gneE241 -gneE291 -gneE232 -gneE438 gneE335 -gneE446 gneE346 -gneE454 gneE357 gneE358 -gneE471 gneE369 gneE480"/>
    </vehicle>
    <vehicle id="driver_46" depart="261.00" departPos="42.80">
        <route edges="-gneE373 -gneE415 gneE383 gneE424 gneE374 gneE375"/>
    </vehicle>
    <vehicle id="driver_47" depart="262.00" departPos="42.80">
        <route edges="gneE85 -gneE184 gneE76 -gneE193 -gneE192 -gneE191 -gneE46 gneE181"/>
    </vehicle>
    <vehicle id="driver_48" depart="269.00" departPos="42.80">
        <route edges="-gneE54 gneE162 -gneE63 gneE153 -gneE72 gneE144 gneE145 gneE146 gneE147 -gneE111"/>
    </vehicle>
    <vehicle id="driver_49" depart="271.00" departPos="42.80">
        <route edges="-gneE159 gneE123"/>
    </vehicle>
    <vehicle id="driver_50" depart="276.00" departPos="42.80">
        <route edges="gneE421 gneE422 gneE423 -gneE383 -gneE414"/>
    </vehicle>
    <person id="customer_45" depart="287.00" departPos="42.80">
        <stop lane="-gneE519_0" duration="1000.00"/>
    </person>
    <vehicle id="driver_51" depart="290.00" departPos="42.80">
        <route edges="gneE228 gneE229 gneE230 gneE231 -gneE438 -gneE334 gneE429"/>
    </vehicle>
    <vehicle id="driver_52" depart="295.00" departPos="42.80">
        <route edges="gneE11 -gneE209 -gneE208 -gneE207 -gneE206 -gneE205 -gneE87"/>
    </vehicle>
    <person id="customer_46" depart="297.00" departPos="42.80">
        <stop lane="gneE249_0" duration="1000.00"/>
    </person>
    <person id="customer_47" depart="302.00" departPos="42.80">
        <stop lane="gneE468_0" duration="1000.00"/>
    </person>
    <person id="customer_48" depart="303.00" departPos="42.80">
        <stop lane="-gneE29_0" duration="1000.00"/>
    </person>
    <person id="customer_49" depart="306.00" departPos="42.80">
        <stop lane="-gneE341_0" duration="1000.00"/>
    </person>
    <person id="customer_50" depart="317.00" departPos="42.80">
        <stop lane="gneE446_0" duration="1000.00"/>
    </person>
    <vehicle id="driver_53" depart="322.00" departPos="44.80">
        <route edges="-gneE306 -gneE305 gneE402 gneE413 gneE393 gneE423 gneE384 gneE385 gneE442 -gneE375"/>
    </vehicle>
    <person id="customer_51" depart="324.00" departPos="42.80">
        <stop lane="-gneE257_0" duration="1000.00"/>
    </person>
    <person id="customer_52" depart="324.00" departPos="42.80">
        <stop lane="-gneE547_0" duration="1000.00"/>
    </person>
    <vehicle id="driver_54" depart="326.00" departPos="42.80">
        <route edges="-gneE517 gneE28 gneE511 -gneE565 gneE494 gneE495 gneE496 gneE497 gneE498"/>
    </vehicle>
    <person id="customer_53" depart="329.00" departPos="42.80">
        <stop lane="gneE554_0" duration="1000.00"/>
    </person>
    <person id="customer_54" depart="330.00" departPos="42.80">
        <stop lane="-gneE22_0" duration="1000.00"/>
    </person>
    <vehicle id="driver_55" depart="331.00" departPos="92.80">
        <route edges="-gneE234 -gneE420 gneE333 -gneE428 gneE344 -gneE436 gneE355 -gneE444 gneE366 gneE367 gneE368 -gneE470 -gneE378"/>
    </vehicle>
    <vehicle id="driver_56" depart="331.00" departPos="42.80">
        <route edges="gneE236 -gneE19 -gneE18 -gneE17 -gneE16 -gneE169"/>
    </vehicle>
    <vehicle id="driver_57" depart="334.00" departPos="42.80">
        <route edges="gneE117 -gneE207 -gneE107 -gneE196 -gneE96 -gneE185 -gneE85 -gneE174 -gneE74 -gneE73 -gneE72 -gneE143 -gneE61 -gneE132 -gneE50 gneE28 gneE511"/>
    </vehicle>
    <vehicle id="driver_58" depart="342.00" departPos="42.80">
        <route edges="-gneE467 -gneE408 gneE458 -gneE397 gneE450 -gneE386 gneE442 gneE443 gneE444 gneE445 -gneE345 -gneE436"/>
    </vehicle>
    <vehicle id="driver_59" depart="345.00" departPos="42.80">
        <route edges="gneE568 -gneE529 gneE26 gneE523 -gneE567"/>
    </vehicle>
    <person id="customer_55" depart="350.00" departPos="42.80">
        <stop lane="-gneE298_0" duration="1000.00"/>
    </person>
    <vehicle id="driver_60" depart="351.00" departPos="42.80">
        <route edges="-gneE213 gneE69 -gneE2 -gneE1 -gneE0 -gneE39 gneE210"/>
    </vehicle>
    <person id="customer_56" depart="358.00" departPos="42.80">
        <stop lane="-gneE514_0" duration="1000.00"/>
    </person>
    <person id="customer_57" depart="363.00" departPos="42.80">
        <stop lane="gneE293_0" duration="1000.00"/>
    </person>
    <person id="customer_58" depart="364.00" departPos="42.80">
        <stop lane="gneE457_0" duration="1000.00"/>
    </person>
    <person id="customer_59" depart="369.00" departPos="42.80">
        <stop lane="gneE155_0" duration="1000.00"/>
    </person>
    <person id="customer_60" depart="373.00" departPos="42.80">
        <stop lane="-gneE275_0" duration="1000.00"/>
    </person>
    <person id="customer_61" depart="382.00" departPos="42.80">
        <stop lane="gneE247_0" duration="1000.00"/>
    </person>
    <person id="customer_62" depart="382.00" departPos="42.80">
        <stop lane="gneE57_0" duration="1000.00"/>
    </person>
    <person id="customer_63" depart="384.00" departPos="42.80">
        <stop lane="-gneE501_0" duration="1000.00"/>
    </person>
    <person id="customer_64" depart="388.00" departPos="42.80">
        <stop lane="gneE450_0" duration="1000.00"/>
    </person>
    <person id="customer_65" depart="392.00" departPos="42.80">
        <stop lane="gneE538_0" duration="1000.00"/>
    </person>
    <vehicle id="driver_61" depart="392.00" departPos="42.80">
        <route edges="-gneE508 -gneE558 -gneE537 -gneE563 -gneE530 -gneE568 -gneE523 gneE27"/>
    </vehicle>
    <vehicle id="driver_62" depart="396.00" departPos="42.80">
        <route edges="-gneE283 -gneE257 gneE277"/>
    </vehicle>
    <vehicle id="driver_63" depart="402.00" departPos="42.80">
        <route edges="-gneE492 -gneE491 -gneE490 -gneE360"/>
    </vehicle>
    <person id="customer_66" depart="408.00" departPos="42.80">
        <stop lane="-gneE138_0" duration="1000.00"/>
    </person>
    <vehicle id="driver_64" depart="409.00" departPos="42.80">
        <route edges="gneE409 gneE476 gneE400 gneE486 gneE391 gneE319 gneE320 gneE321 gneE322 -gneE351"/>
    </vehicle>
    <person id="customer_67" depart="412.00" departPos="44.80">
        <stop lane="gneE9_0" duration="1000.00"/>
    </person>
    <vehicle id="driver_65" depart="412.00" departPos="42.80">
        <route edges="-gneE417 gneE363 gneE426 gneE427 gneE428 gneE429 gneE291"/>
    </vehicle>
    <vehicle id="driver_66" depart="412.00" departPos="42.80">
        <route edges="gneE248 -gneE229 -gneE254 -gneE293"/>
    </vehicle>
    <vehicle id="driver_67" depart="413.00" departPos="42.80">
        <route edges="-gneE526 -gneE555 -gneE519 -gneE518 -gneE566 gneE512"/>
    </vehicle>
    <person id="customer_68" depart="414.00" departPos="42.80">
        <stop lane="-gneE521_0" duration="1000.00"/>
    </person>
    <vehicle id="driver_68" depart="415.00" departPos="42.80">
        <route edges="-gneE473 -gneE348 -gneE463 -gneE357 -gneE453 -gneE366"/>
    </vehicle>
    <person id="customer_69" depart="416.00" departPos="42.80">
        <stop lane="gneE232_0" duration="1000.00"/>
    </person>
    <vehicle id="driver_69" depart="418.00" departPos="42.80">
        <route edges="gneE532 gneE551 -gneE538 gneE558 gneE508 gneE509 gneE510 -gneE23"/>
    </vehicle>
    <vehicle id="driver_70" depart="419.00" departPos="42.80">
        <route edges="gneE509 -gneE570 -gneE535 gneE25 gneE26 gneE27 gneE28"/>
    </vehicle>
    <person id="customer_70" depart="421.00" departPos="42.80">
        <stop lane="gneE209_0" duration="1000.00"/>
    </person>
    <vehicle id="driver_71" depart="425.00" departPos="42.80">
        <route edges="-gneE175 -gneE84 -gneE164 -gneE73 -gneE153 -gneE152 -gneE52 gneE142"/>
    </vehicle>
    <person id="customer_71" depart="428.00" departPos="42.80">
        <stop lane="-gneE429_0" duration="1000.00"/>
    </person>
    <person id="customer_72" depart="431.00" departPos="42.80">
        <stop lane="-gneE87_0" duration="1000.00"/>
    </person>
    <person id="customer_73" depart="436.00" departPos="42.80">
        <stop lane="gneE102_0" duration="1000.00"/>
    </person>
    <vehicle id="driver_72" depart="439.00" departPos="42.80">
        <route edges="gneE531 -gneE556 -gneE555 -gneE519 gneE561"/>
    </vehicle>
    <vehicle id="driver_73" depart="441.00" departPos="42.80">
        <route edges="-gneE193 -gneE66 gneE183 -gneE75 gneE174 -gneE84 gneE165 -gneE93 gneE156 gneE157 gneE158 -gneE122 -gneE148"/>
    </vehicle>
    <vehicle id="driver_74" depart="444.00" departPos="42.80">
        <route edges="gneE146 -gneE101 gneE137 gneE138 gneE139 gneE237 -gneE267 gneE236"/>
    </vehicle>
    <person id="customer_74" depart="445.00" departPos="42.80">
        <stop lane="gneE509_0" duration="1000.00"/>
    </person>
    <vehicle id="driver_75" depart="450.00" departPos="42.80">
        <route edges="-gneE275 gneE245 -gneE280 gneE240 gneE241 gneE292 -gneE247"/>
    </vehicle>
    <vehicle id="driver_76" depart="450.00" departPos="42.80">
        <route edges="gneE230 -gneE242 gneE292 gneE248 -gneE229 -gneE254"/>
    </vehicle>
    <person id="customer_75" depart="451.00" departPos="42.80">
        <stop lane="gneE529_0" duration="1000.00"/>
    </person>
    <person id="customer_76" depart="453.00" departPos="42.80">
        <stop lane="gneE388_0" duration="1000.00"/>
    </person>
    <vehicle id="driver_77" depart="455.00" departPos="42.80">
        <route edges="gneE26 gneE523 -gneE567 -gneE566 -gneE565 gneE494 gneE559"/>
    </vehicle>
    <person id="customer_77" depart="456.00" departPos="42.80">
        <stop lane="-gneE459_0" duration="1000.00"/>
    </person>
    <vehicle id="driver_78" depart="460.00" departPos="42.80">
        <route edges="gneE212 -gneE68 gneE203 -gneE77 gneE194 -gneE86 gneE185 -gneE95 gneE176 -gneE104 -gneE103 -gneE102 gneE147 gneE112"/>
    </vehicle>
    <person id="customer_78" depart="465.00" departPos="42.80">
        <stop lane="gneE93_0" duration="1000.00"/>
    </person>
    <vehicle id="driver_79" depart="465.00" departPos="42.80">
        <route edges="-gneE517 -gneE27 gneE60 gneE133 gneE134 gneE135 gneE136 gneE137 gneE138 gneE139 gneE237 -gneE267 gneE236"/>
    </vehicle>
    <person id="customer_79" depart="472.00" departPos="42.80">
        <stop lane="-gneE264_0" duration="1000.00"/>
    </person>
    <person id="customer_80" depart="473.00" departPos="42.80">
        <stop lane="gneE256_0" duration="1000.00"/>
    </person>
    <person id="customer_81" depart="474.00" departPos="42.80">
        <stop lane="gneE217_0" duration="1000.00"/>
    </person>
    <person id="customer_82" depart="476.00" departPos="42.80">
        <stop lane="-gneE232_0" duration="1000.00"/>
    </person>
    <vehicle id="driver_80" depart="477.00" departPos="42.80">
        <route edges="gneE134 gneE81 gneE145 gneE92 gneE156 gneE157 gneE158 gneE159 gneE249"/>
    </vehicle>
    <person id="customer_83" depart="481.00" departPos="42.80">
        <stop lane="-gneE385_0" duration="1000.00"/>
    </person>
    <person id="customer_84" depart="483.00" departPos="42.80">
        <stop lane="gneE290_0" duration="1000.00"/>
    </person>
    <vehicle id="driver_81" depart="484.00" departPos="42.80">
        <route edges="-gneE230 -gneE248 gneE293 -gneE253 gneE288 -gneE258 gneE283 -gneE263 -gneE262 -gneE261 -gneE14 -gneE189"/>
    </vehicle>
    <person id="customer_85" depart="485.00" departPos="42.80">
        <stop lane="gneE503_0" duration="1000.00"/>
    </person>
    <person id="customer_86" depart="487.00" departPos="42.80">
        <stop lane="-gneE440_0" duration="1000.00"/>
    </person>
    <vehicle id="driver_82" depart="489.00" departPos="42.80">
        <route edges="-gneE555 gneE520 gneE521 gneE543"/>
    </vehicle>
    <person id="customer_87" depart="490.00" departPos="42.80">
        <stop lane="-gneE205_0" duration="1000.00"/>
    </person>
    <vehicle id="driver_83" depart="490.00" departPos="42.80">
        <route edges="gneE266 gneE227 gneE228 -gneE254 gneE294"/>
    </vehicle>
    <vehicle id="driver_84" depart="492.00" departPos="42.80">
        <route edges="gneE525 gneE556 -gneE531 gneE563 gneE564 gneE509 -gneE570"/>
    </vehicle>
    <vehicle id="driver_85" depart="495.00" departPos="42.80">
        <route edges="-gneE143 -gneE61 gneE133 gneE71 gneE144 gneE145 gneE146 gneE147 gneE148 gneE149 -gneE17"/>
    </vehicle>
    <vehicle id="driver_86" depart="497.00" departPos="42.80">
        <route edges="gneE45 gneE181 gneE56 gneE192 gneE67 gneE68 gneE69 gneE3"/>
    </vehicle>
    <person id="customer_88" depart="500.00" departPos="42.80">
        <stop lane="-gneE338_0" duration="1000.00"/>
    </person>
    <vehicle id="driver_87" depart="503.00" departPos="42.80">
        <route edges="gneE551 -gneE538 -gneE557 -gneE531 -gneE530 -gneE529 gneE26"/>
    </vehicle>
    <person id="customer_89" depart="514.00" departPos="42.80">
        <stop lane="gneE79_0" duration="1000.00"/>
    </person>
    <vehicle id="driver_88" depart="515.00" departPos="42.80">
        <route edges="gneE334 -gneE437 gneE345 -gneE445 gneE356 -gneE453 gneE367 -gneE461 gneE378 gneE379 -gneE478 gneE390 gneE391"/>
    </vehicle>
    <person id="customer_90" depart="526.00" departPos="42.80">
        <stop lane="-gneE545_0" duration="1000.00"/>
    </person>
    <person id="customer_91" depart="527.00" departPos="42.80">
        <stop lane="-gneE208_0" duration="1000.00"/>
    </person>
    <vehicle id="driver_89" depart="528.00" departPos="42.80">
        <route edges="gneE518 gneE561 gneE525 gneE556 gneE532 gneE551 gneE539 gneE540 gneE504 gneE505"/>
    </vehicle>
    <person id="customer_92" depart="533.00" departPos="42.80">
        <stop lane="-gneE238_0" duration="1000.00"/>
    </person>
    <person id="customer_93" depart="540.00" departPos="42.80">
        <stop lane="gneE93_0" duration="1000.00"/>
    </person>
    <person id="customer_94" depart="542.00" departPos="42.80">
        <stop lane="-gneE122_0" duration="1000.00"/>
    </person>
    <vehicle id="driver_90" depart="542.00" departPos="42.80">
        <route edges="gneE546 gneE506 -gneE552 -gneE538 -gneE557 -gneE531 -gneE562 -gneE524 -gneE567 -gneE517 gneE50"/>
    </vehicle>
    <vehicle id="driver_91" depart="547.00" departPos="42.80">
        <route edges="gneE429 gneE233 gneE285 -gneE240 gneE280 -gneE245 gneE275 gneE276 gneE277"/>
    </vehicle>
    <person id="customer_95" depart="548.00" departPos="42.80">
        <stop lane="gneE539_0" duration="1000.00"/>
    </person>
    <person id="customer_96" depart="553.00" departPos="42.80">
        <stop lane="gneE197_0" duration="1000.00"/>
    </person>
    <vehicle id="driver_92" depart="554.00" departPos="42.80">
        <route edges="gneE59 gneE2 -gneE69 gneE213 gneE214 gneE215 gneE99"/>
    </vehicle>
    <person id="customer_97" depart="556.00" departPos="42.80">
        <stop lane="-gneE134_0" duration="1000.00"/>
    </person>
    <vehicle id="driver_93" depart="557.00" departPos="42.80">
        <route edges="gneE516 gneE500 -gneE522 -gneE521"/>
    </vehicle>
    <person id="customer_98" depart="559.00" departPos="42.80">
        <stop lane="-gneE535_0" duration="1000.00"/>
    </person>