<?xml version="1.0" encoding="UTF-8"?>

<!-- generated on 2022-10-26 23:17:59 by Eclipse SUMO duarouter Version v1_14_1+1085-1ed58b92c9a
<configuration xmlns:xsi="http://www.w3.org/2001/XMLSchema-instance" xsi:noNamespaceSchemaLocation="http://sumo.dlr.de/xsd/duarouterConfiguration.xsd">

    <input>
        <net-file value="./net_config/san-francisco.net.xml"/>
        <route-files value="./net_config/sf_sfcta_mobility.xml"/>
    </input>

    <output>
        <output-file value="./net_config/sf_sfcta_clean_mobility.rou.xml"/>
    </output>

    <processing>
        <repair value="true"/>
    </processing>

    <report>
        <ignore-errors value="true"/>
    </report>

</configuration>
-->

<routes xmlns:xsi="http://www.w3.org/2001/XMLSchema-instance" xsi:noNamespaceSchemaLocation="http://sumo.dlr.de/xsd/routes_file.xsd">
    <person id="customer_0" depart="0.00" departPos="0.10">
        <stop lane="8919510_0" duration="1000.00"/>
    </person>
    <person id="customer_1" depart="0.00" departPos="90.97">
        <stop lane="8921595_0" duration="1000.00"/>
    </person>
    <person id="customer_2" depart="0.00" departPos="0.10">
        <stop lane="87376682#0_0" duration="1000.00"/>
    </person>
    <vehicle id="driver_0" depart="0.00" departPos="57.47">
        <route edges="-8919940#3 8919940#3 255178056#0 -255178056#0"/>
    </vehicle>
    <vehicle id="driver_1" depart="0.00" departPos="44.98">
        <route edges="8919656#0 -8919656#0 -566870809#2 -8919657#1 306338105#3"/>
    </vehicle>
    <person id="customer_3" depart="1.00" departPos="4.96">
        <stop lane="970239613_0" duration="1000.00"/>
    </person>
    <person id="customer_4" depart="1.00" departPos="4.39">
        <stop lane="396937570#1_0" duration="1000.00"/>
    </person>
    <vehicle id="driver_2" depart="1.00" departPos="83.94">
        <route edges="-464936238 -469398534#0 -8916866#7 -8916866#6 8917234"/>
    </vehicle>
    <vehicle id="driver_3" depart="1.00" departPos="64.14">
        <route edges="-8921365#1 8921365#1 8916155#1 8916155#2 8916155#3 8916155#4 8916155#5 8916155#6 8916663#2 254759943#1 254759943#2"/>
    </vehicle>
    <vehicle id="driver_4" depart="1.00" departPos="30.85">
        <route edges="-8922223 400105599#5 400105599#6 400105599#7"/>
    </vehicle>
    <vehicle id="driver_5" depart="1.00" departPos="63.27">
        <route edges="8921767#1 255178073#2 255178073#3 -8919143#9 -8919207#4 8919207#4"/>
    </vehicle>
    <vehicle id="driver_6" depart="1.00" departPos="14.26">
        <route edges="397133785 286463496 -286461027 -8917154#1 -8917154#0 -397130406 -417392494"/>
    </vehicle>
    <vehicle id="driver_7" depart="1.00" departPos="7.28">
        <route edges="222832806 415548406 247329529#0 247329529#1 8920232#0 -222858919#2 222858919#2"/>
    </vehicle>
    <vehicle id="driver_8" depart="1.00" departPos="90.04">
        <route edges="8918051#2 8918051#3"/>
    </vehicle>
    <vehicle id="driver_9" depart="1.00" departPos="51.53">
        <route edges="-25655734#2 -25655734#1 -25655734#0 25655720 -553724893 8920888 404331851 404331850 404331849 25655723#0"/>
    </vehicle>
    <vehicle id="driver_10" depart="1.00" departPos="55.26">
        <route edges="278713841 -8921045 -8917197#1 -8917197#0 27028705#2 27028705#3 27028705#4 27028705#5 -254971072 254971063#0 254971063#1 27028605 255170273#0 255170273#1 133743912 133743857 -133743850 133743889 133743890"/>
    </vehicle>
    <vehicle id="driver_11" depart="1.00" departPos="94.53">
        <route edges="437557845#1 544456547#8 -32949491#0 682559253 437557059 -437557059"/>
    </vehicle>
    <vehicle id="driver_12" depart="1.00" departPos="15.77">
        <route edges="681971892 255351722 1037044666"/>
    </vehicle>
    <vehicle id="driver_13" depart="1.00" departPos="0.88">
        <route edges="1064042429#0 1064042429#1 1064042429#2 1064042429#3 -225840348#1 467991735#9 133856220#0 -133856220#0"/>
    </vehicle>
    <vehicle id="driver_14" depart="1.00" departPos="96.37">
        <route edges="406547245#6 254759917#4 133856229 133856227#0 133856227#1 107288564"/>
    </vehicle>
    <vehicle id="driver_15" depart="1.00" departPos="43.91">
        <route edges="8917081#3 225840314#1 225840314#2"/>
    </vehicle>
    <vehicle id="driver_16" depart="1.00" departPos="96.54">
        <route edges="-8919455#2 225840316#4 -256931747#3 -254396705#8"/>
    </vehicle>
    <vehicle id="driver_17" depart="1.00" departPos="96.22">
        <route edges="8918530#3 -8918530#3 -254297753#1 -254297753#0"/>
    </vehicle>
    <vehicle id="driver_18" depart="1.00" departPos="0.43">
        <route edges="158468711#0 158468711#1 158468965 158468957#0 158468957#1 -158468706 -760576903#1 -760576903#0 -760576902 -396964577 -396964580"/>
    </vehicle>
    <vehicle id="driver_19" depart="1.00" departPos="66.10">
        <route edges="-283529756#0 283529756#0 8917382#5 591570708 591570707 -591570706 8916751 99278924#5"/>
    </vehicle>
    <vehicle id="driver_20" depart="1.00" departPos="42.19">
        <route edges="8919173#17 -225516711#1 -254759909#10 -8922564#1 225516700#1 -24335480#2 24335480#2"/>
    </vehicle>
    <vehicle id="driver_21" depart="1.00" departPos="42.26">
        <route edges="468450102 -468450102 -24335484#1 -148902179#0 -713493921 -713493922"/>
    </vehicle>
    <vehicle id="driver_22" depart="1.00" departPos="45.16">
        <route edges="-84733302#23 148902187#2 148902187#3 -30831508#1"/>
    </vehicle>
    <vehicle id="driver_23" depart="1.00" departPos="66.12">
        <route edges="619568431 -619568431 -619568430#2 -619568430#1 -619568430#0 85562604#0 85562604#1 85562604#2"/>
    </vehicle>
    <vehicle id="driver_24" depart="1.00" departPos="2.48">
        <route edges="59761741#0 59761741#1 618390334 404847816#0 404847816#1 404847812 396937788 1059789029 397084145 23840002 513892034 8917546"/>
    </vehicle>
    <vehicle id="driver_25" depart="1.00" departPos="20.84">
        <route edges="-797226924#9 8917418#2 -8917166#16 -8917166#15"/>
    </vehicle>
    <vehicle id="driver_26" depart="1.00" departPos="96.49">
        <route edges="711636459#6 255178150#4 -437541662#10 -678903563#0 -761340404 761340404"/>
    </vehicle>
    <vehicle id="driver_27" depart="1.00" departPos="25.66">
        <route edges="25292245#3 -25292245#3 -25292245#2 27028340#4 27028340#5 663877879#1 -223103655#1 -223103655#0 47184410#1 983592860 8919478#1"/>
    </vehicle>
    <vehicle id="driver_28" depart="1.00" departPos="40.07">
        <route edges="8917927#3 -437555702#5 -465209329#11"/>
    </vehicle>
    <vehicle id="driver_29" depart="1.00" departPos="40.07">
        <route edges="-27092233#2 27092233#2 437559564#3 225806045#0"/>
    </vehicle>
    <vehicle id="driver_30" depart="1.00" departPos="96.48">
        <route edges="437558272#3 -437558272#3 -27092233#6"/>
    </vehicle>
    <vehicle id="driver_31" depart="1.00" departPos="16.66">
        <route edges="515521785 515521786 -515521786 -515521785 -145474275#0 -515520155 -514562704 -217358397#2 -217358397#1 -217358397#0 217358397#0 217358397#1"/>
    </vehicle>
    <vehicle id="driver_32" depart="1.00" departPos="90.33">
        <route edges="27239374 48570006#0 -48570006#0 27239373 -654874225 -414894752#0 -283523313#1"/>
    </vehicle>
    <vehicle id="driver_33" depart="1.00" departPos="65.25">
        <route edges="-922503885 922503884 -25821938#1 -25821938#0 -483432855 8916798#3"/>
    </vehicle>
    <vehicle id="driver_34" depart="1.00" departPos="40.06">
        <route edges="-133856217#3 8919398#5 -514656303#3 514656303#3"/>
    </vehicle>
    <vehicle id="driver_35" depart="1.00" departPos="66.39">
        <route edges="91181771#6 417087368 91181769 -417087485 -88572887#2 -88572887#1 -88572887#0 417087312#0 417087312#1 417087312#2 417087312#3 417087300#0 417087300#1 111050389#0 111050389#1 620200099#0 620200099#1"/>
    </vehicle>
    <vehicle id="driver_36" depart="1.00" departPos="52.42">
        <route edges="-264874017 -515486318 -88572901 -88572932#1 -88572932#0 88572895 964199563 964199564 1068493279 1068493280 417396816#0 417396816#1 1040509547 513701878#0 513701878#1 1050267029"/>
    </vehicle>
    <vehicle id="driver_37" depart="1.00" departPos="11.14">
        <route edges="417396764#0 417396764#1 397104881#0 397104881#1 397104883 254299117#0 8919616 47172834#1 8916553#0 8919615 -769783926#0 -397097609#1 -397097609#0 -769990214#2 -769990214#1 -769990214#0"/>
    </vehicle>
    <vehicle id="driver_38" depart="1.00" departPos="18.75">
        <route edges="527857425#1 527857425#2 527857425#3 468552082#0 468552082#1 468552082#2 417087519#0 417087519#1 8917756"/>
    </vehicle>
    <vehicle id="driver_39" depart="1.00" departPos="0.10">
        <route edges="-396985972 396985972 417107323 417107333 396985970 396985967 396985971 396985966 396985969#0 396985969#1 738000217#0 738000217#1 739601030#0 739601030#1 8922962#0 8922962#1 8922962#2"/>
    </vehicle>
    <vehicle id="driver_40" depart="1.00" departPos="3.18">
        <route edges="417264575#0 417264575#1 365815995#0 365815995#1 -619979107 -225806041 -225806042#1 -225806042#0 739669067#0 739669067#1"/>
    </vehicle>
    <vehicle id="driver_41" depart="1.00" departPos="44.12">
        <route edges="797255352#3 797255352#4 84734271#1 1062095136 254758124#0 254758124#1 254758125#0 254758125#1 277480564"/>
    </vehicle>
    <vehicle id="driver_42" depart="1.00" departPos="73.35">
        <route edges="-8916907#0 8916065 465227212 -8918249"/>
    </vehicle>
    <vehicle id="driver_43" depart="1.00" departPos="0.14">
        <route edges="43100046#1 43100046#2 673985189#0 673985189#1 673985189#2 397097611#0 397097611#1 255330038#0 255330038#1 255330038#2 255330038#3 417400768#0 417400768#1 417400765 397270027#0 397270027#1 397270027#2 -255330036#2"/>
    </vehicle>
    <vehicle id="driver_44" depart="1.00" departPos="87.17">
        <route edges="8917298#0 -86331251#5 8916738#1 680243316"/>
    </vehicle>
    <vehicle id="driver_45" depart="1.00" departPos="83.18">
        <route edges="178100189 -8916367#1 -8916367#0"/>
    </vehicle>
    <vehicle id="driver_46" depart="1.00" departPos="0.99">
        <route edges="736374827#1 -88572965#2 -88572965#1 -88572965#0 111552058#0 111552058#1 255330068#0"/>
    </vehicle>
    <vehicle id="driver_47" depart="1.00" departPos="66.05">
        <route edges="8922564#9 -8922564#9 -8917382#1 -224316518#3 -8916386#0 475767105#1"/>
    </vehicle>
    <vehicle id="driver_48" depart="1.00" departPos="6.35">
        <route edges="513971227#1 619378867#0 619378867#1 414979750#0 414979750#1"/>
    </vehicle>
    <vehicle id="driver_49" depart="1.00" departPos="19.60">
        <route edges="1041351161 329596844#0 329596844#1 -28841115#2 -28841115#1 -28841115#0 286003244#3"/>
    </vehicle>
    <vehicle id="driver_50" depart="1.00" departPos="30.61">
        <route edges="286003244#5 513676819 397146704 1046480747"/>
    </vehicle>
    <vehicle id="driver_51" depart="1.00" departPos="35.44">
        <route edges="28843615#4 397146708#0"/>
    </vehicle>
    <vehicle id="driver_52" depart="1.00" departPos="63.23">
        <route edges="133856295 8921647"/>
    </vehicle>
    <vehicle id="driver_53" depart="1.00" departPos="0.10">
        <route edges="-8917635#1 -8917635#0 27652477#1 27652477#2 107801951#0 107801951#1 107801951#2"/>
    </vehicle>
    <vehicle id="driver_54" depart="1.00" departPos="3.60">
        <route edges="751256285 -751256285 -751256284 -255178049 8917230 8919104 -283523980 40416254 751256283 124673851 619535681 276338268#0 -276338268#0"/>
    </vehicle>
    <vehicle id="driver_55" depart="1.00" departPos="2.79">
        <route edges="737403469 -397131766#1 -397131766#0 -397131765 -8920045#3 -8920045#2 -8920045#1 255351720#5"/>
    </vehicle>
    <vehicle id="driver_56" depart="1.00" departPos="0.10">
        <route edges="-258909838 258909838 902045612 -8916484 397169005 162799068 -162799068 -397169005"/>
    </vehicle>
    <vehicle id="driver_57" depart="1.00" departPos="43.78">
        <route edges="-224316527#1 -224316527#0 224316527#0 224316527#1 224316527#2 -224316527#2"/>
    </vehicle>
    <vehicle id="driver_58" depart="1.00" departPos="0.10">
        <route edges="254466686#4 -254466686#4 -254466686#3 -254466686#2 397146706#3"/>
    </vehicle>
    <vehicle id="driver_59" depart="1.00" departPos="148.49">
        <route edges="765333678 765333677 -26765928#0 8916316 398470319#0 398470319#1 85562567 417104573 397028729 792996610"/>
    </vehicle>
    <person id="customer_5" depart="2.00" departPos="66.23">
        <stop lane="254756522#5_0" duration="1000.00"/>
    </person>
    <vehicle id="driver_60" depart="2.00" departPos="36.02">
        <route edges="255178140#0 -255178140#0 -254396720#1 -254396720#0 -254396722 -254299138#1"/>
    </vehicle>
    <vehicle id="driver_61" depart="2.00" departPos="333.66">
        <route edges="939734644 395806664 8915382 417960380 89527380 513667640 513667637 184255666 286345268 48208461 417960374 513667634 397103494 37573562 43759505 397103493 43759506 -159783445#2 -159783445#1 159783445#1"/>
    </vehicle>
    <vehicle id="driver_62" depart="2.00" departPos="93.28">
        <route edges="-8920054#7 -8917715#4"/>
    </vehicle>
    <vehicle id="driver_63" depart="2.00" departPos="65.21">
        <route edges="-8921586#1 8921586#1 -8919710#2 -254982285#0 254982285#0"/>
    </vehicle>
    <vehicle id="driver_64" depart="2.00" departPos="45.16">
        <route edges="-8919081#0 8916275#4 400096944#8 400096945 400096944#0 -400096944#0"/>
    </vehicle>
    <vehicle id="driver_65" depart="2.00" departPos="4.36">
        <route edges="27397293 286505375#2 286505375#3 286505375#4 -133781862 -27028349#1 -27028349#0 27028350 217358402 -217358402"/>
    </vehicle>
    <vehicle id="driver_66" depart="2.00" departPos="2.96">
        <route edges="8918029#2 -8918029#2 -8918029#1 -8918029#0 -25655744 -8917685#1 -8917685#0 507998751#2 221228923 453561097#0 453561097#1"/>
    </vehicle>
    <vehicle id="driver_67" depart="2.00" departPos="40.07">
        <route edges="255170258#2 255170258#3 -437536521#11"/>
    </vehicle>
    <vehicle id="driver_68" depart="2.00" departPos="37.23">
        <route edges="254759944 -254759944 -147010716#10 -147010716#9 147010716#9"/>
    </vehicle>
    <vehicle id="driver_69" depart="2.00" departPos="40.10">
        <route edges="419633767 399016166#0 -437536521#8"/>
    </vehicle>
    <vehicle id="driver_70" depart="2.00" departPos="19.70">
        <route edges="192552300#0 -192552300#0 -437560090#1 -437560090#0 192552299#0 192552299#1 192552299#2 192552507#0 192552507#1 192552507#2 -192552507#2 -192552507#1 -192552507#0"/>
    </vehicle>
    <vehicle id="driver_71" depart="2.00" departPos="0.10">
        <route edges="898469737#0 898469737#1 898469737#2 898469737#3 286265326#0 286265326#1 286265326#2 237300267#0 237300267#1 237300267#2 237300267#3"/>
    </vehicle>
    <vehicle id="driver_72" depart="2.00" departPos="8.18">
        <route edges="295482373#0 295482373#1 295482373#2 295482373#3 225840353#1 -437533750#1 -437533750#0 -437535047 437535047"/>
    </vehicle>
    <vehicle id="driver_73" depart="2.00" departPos="94.83">
        <route edges="-8918519#0 505798358 505798162#0 505798162#1 8921197#0"/>
    </vehicle>
    <vehicle id="driver_74" depart="2.00" departPos="17.36">
        <route edges="417315289 112470382#0 -112470382#0 -417315289 -34129169#1 -34129169#0 -8920432 8920432"/>
    </vehicle>
    <vehicle id="driver_75" depart="2.00" departPos="44.65">
        <route edges="8919096 -8919096 24335451#1 24335451#2 -24335451#2"/>
    </vehicle>
    <vehicle id="driver_76" depart="2.00" departPos="64.80">
        <route edges="521514785#1 -154647386#1 -8918885"/>
    </vehicle>
    <vehicle id="driver_77" depart="2.00" departPos="94.75">
        <route edges="-133856369#0 133856217#0 -8916406#4 8916406#4"/>
    </vehicle>
    <vehicle id="driver_78" depart="2.00" departPos="43.97">
        <route edges="32121426 32121423#0 -930588345#3 -930588345#2 930588345#2"/>
    </vehicle>
    <vehicle id="driver_79" depart="2.00" departPos="65.96">
        <route edges="225853131 133733591 963985170 133781714"/>
    </vehicle>
    <vehicle id="driver_80" depart="2.00" departPos="96.47">
        <route edges="8918512#4 8918512#5 -8918512#5"/>
    </vehicle>
    <vehicle id="driver_81" depart="2.00" departPos="95.43">
        <route edges="-158804473#0 396948935 396948936 158804445 396950823 396950804 681479545 158804430 158804462#0"/>
    </vehicle>
    <vehicle id="driver_82" depart="2.00" departPos="45.38">
        <route edges="989334074#1 -254758120#0 254758120#0"/>
    </vehicle>
    <vehicle id="driver_83" depart="2.00" departPos="0.55">
        <route edges="254758114#5 254758114#6 254758114#7 254758114#8 674757878#0 674757878#1 674757886#0 674757886#1 674757886#2 674757877#0 674757877#1 502795940#0 502795940#1 27166466#2"/>
    </vehicle>
    <vehicle id="driver_84" depart="2.00" departPos="43.10">
        <route edges="25372932#3 461084153#2 461084153#3 461084153#4 8919058"/>
    </vehicle>
    <vehicle id="driver_85" depart="2.00" departPos="0.92">
        <route edges="133376114#5 -133376114#5 -133376114#4 -133376114#3 30029172#3 30029172#4"/>
    </vehicle>
    <vehicle id="driver_86" depart="2.00" departPos="60.03">
        <route edges="26938867#1 26938867#2 -26938867#2"/>
    </vehicle>
    <vehicle id="driver_87" depart="2.00" departPos="66.11">
        <route edges="27043603#1 -12437582#3 -717618719 -717666275 -717666274 717666274"/>
    </vehicle>
    <vehicle id="driver_88" depart="2.00" departPos="0.10">
        <route edges="-85644947 85644947 85644955#0 85644955#1 85644955#2 85644921#0 85644921#1 85644921#2 -85645515 85645515"/>
    </vehicle>
    <vehicle id="driver_89" depart="2.00" departPos="21.85">
        <route edges="680429721#1 680429721#2 -255178148#1 -255178148#0 -8916488#2 -8918468#1 -8918468#0 -976682272#3 -976682272#2 -976682272#1"/>
    </vehicle>
    <vehicle id="driver_90" depart="2.00" departPos="29.68">
        <route edges="8915869#2 8921586#1 8921586#2 1011004734#0 1011004734#1 1011004734#2 1011004734#3 -27397317#1 -27397317#0 976551785#0 976551785#1 1053824563 27145632 32005897#0 8915168"/>
    </vehicle>
    <vehicle id="driver_91" depart="2.00" departPos="40.07">
        <route edges="526276799#1 -526276799#1 -526276799#0 -255178154#1 255178154#1"/>
    </vehicle>
    <vehicle id="driver_92" depart="2.00" departPos="96.48">
        <route edges="48435257#10 -48435257#10 -48435257#9 -48435257#8 -48435257#7 -48435257#6 -48435257#5 48435257#5"/>
    </vehicle>
    <vehicle id="driver_93" depart="2.00" departPos="0.99">
        <route edges="417276720#1 417276720#2 286180036#0 286180036#1 286180036#2 286180036#3 -162470926#4 516569605#3 -516569605#3"/>
    </vehicle>
    <vehicle id="driver_94" depart="2.00" departPos="96.47">
        <route edges="-437555702#10 -89812411#8 -89812411#7 -89812411#6"/>
    </vehicle>
    <vehicle id="driver_95" depart="2.00" departPos="23.39">
        <route edges="225854644 -225854644 8919932#0 8919932#1 -255178090#1 -255178090#0 -255178091 -679814104 -8920450#1 -8920450#0 -8919121 -682478115#0 -255178092 255178092 682478115#0"/>
    </vehicle>
    <vehicle id="driver_96" depart="2.00" departPos="56.03">
        <route edges="8920800#1 -8920800#1 539196798#1 -27239380 -468128864#1 -468128864#0 -417385463 -225847506 -417385444 -283080372 -283080371 -417385474 -396972638 -488986464 488986463 808733465 808733463 488986595 -417387221 -1062766976 -26378121 27274511 8919576 51870996#0 51870996#1 483931226"/>
    </vehicle>
    <vehicle id="driver_97" depart="2.00" departPos="41.99">
        <route edges="8920491#0 -8920491#0 8919399 -255170257#3 -255170257#2 -437538522#10 -255170252#1"/>
    </vehicle>
    <vehicle id="driver_98" depart="2.00" departPos="75.28">
        <route edges="-8919784 -505806738#1 505806738#1"/>
    </vehicle>
    <vehicle id="driver_99" depart="2.00" departPos="35.45">
        <route edges="-29482558#3 514669210#0 514669210#1 29482569#2 224384013#2 -46272291#6 -46272291#5 46272291#5"/>
    </vehicle>
    <vehicle id="driver_100" depart="2.00" departPos="51.74">
        <route edges="-8916886#0 -8916963#2 -8916963#1"/>
    </vehicle>
    <vehicle id="driver_101" depart="2.00" departPos="7.33">
        <route edges="-706554486 -721739163 -8921014#1 -34129168"/>
    </vehicle>
    <vehicle id="driver_102" depart="2.00" departPos="22.38">
        <route edges="-8921014#1 8921014#1 721739163 -721739166 -8919828"/>
    </vehicle>
    <vehicle id="driver_103" depart="2.00" departPos="37.10">
        <route edges="419633759#0 -419633759#0 -315825761#2 -315825761#1 -315825761#0 -937907545"/>
    </vehicle>
    <vehicle id="driver_104" depart="2.00" departPos="40.51">
        <route edges="688508126 23883362 -8917436 8917436"/>
    </vehicle>
    <vehicle id="driver_105" depart="2.00" departPos="25.25">
        <route edges="284558023 514656307 87235194 514611115 87235200 760431406 42385032 42385031 976356592 26968367 399613190 87235209 396954105 399613186 399613193 396954108 584944917#0 584944917#1 -396954110#2 -396954110#1 -396954110#0 -133856226#3 -133856226#2 -133856226#1"/>
    </vehicle>
    <vehicle id="driver_106" depart="2.00" departPos="0.46">
        <route edges="254759968#1 1043462454 26297408#0 26297408#1 513595716 110365012#0 -110365012#0 -513595716"/>
    </vehicle>
    <vehicle id="driver_107" depart="2.00" departPos="22.04">
        <route edges="-779105817#2 779105817#2 779105817#3 945294690#0 945294690#1 969999007 -8921264#1"/>
    </vehicle>
    <vehicle id="driver_108" depart="2.00" departPos="8.77">
        <route edges="681699527 224384059#0 224384059#1 224384059#2 681699526#0 681699526#1 397270782 681699525 468012245#0 468012245#1 468012245#2 396945236#0 396945236#1 396945236#2 -27656675 397270779#0 397270779#1 397270779#2 397270779#3 397270776#0"/>
    </vehicle>
    <vehicle id="driver_109" depart="2.00" departPos="1.46">
        <route edges="980136124 514616615 396960687 28518582 396955699#0 396955699#1 285977963 8920508 29482558#0 -29482558#0"/>
    </vehicle>
    <vehicle id="driver_110" depart="2.00" departPos="70.00">
        <route edges="-516940743 -739669063 -688508125 -681892553 -681892554 -681882573#1 -681882573#0 681882573#0 681882573#1 681892554 681892553 688508125 739669063"/>
    </vehicle>
    <vehicle id="driver_111" depart="2.00" departPos="0.10">
        <route edges="-158804466 -396951846 -513986492 -133856360 -396951847 396951847 133856360"/>
    </vehicle>
    <vehicle id="driver_112" depart="2.00" departPos="44.74">
        <route edges="8920659#0 8920659#1 8920659#2 485634805 399584993#1"/>
    </vehicle>
    <vehicle id="driver_113" depart="2.00" departPos="35.18">
        <route edges="406944774#1 406944767#0 406944767#1 397145821#0 397145821#1 934261704 397145254#0 397145254#1 255168047#0 255168047#1 255168047#2 255168047#3 255168047#4 513702332"/>
    </vehicle>
    <vehicle id="driver_114" depart="2.00" departPos="43.20">
        <route edges="527829942#1 527829942#2 -285999735 502795946#0 502795946#1 502795946#2 502795946#3 502795946#4 502795946#5 502795944"/>
    </vehicle>
    <vehicle id="driver_115" depart="2.00" departPos="42.34">
        <route edges="-85789166 -688508137#1 -688508137#0 -365816000#1 -365816000#0 -619979101 -225806043#1 -225806043#0 -772972816 1024537343 225806056#0 225806056#1 777343790"/>
    </vehicle>
    <vehicle id="driver_116" depart="2.00" departPos="25.29">
        <route edges="397148932 417099332#0 417099332#1 47172745#0 47172745#1"/>
    </vehicle>
    <vehicle id="driver_117" depart="2.00" departPos="2.88">
        <route edges="619979119#2 224373753#0 224373753#1 619593084 88597563#0 88597563#1 417099304 397150140 1052690680 417099307#0 417099307#1 408575055#0 408575055#1 111560682#0 111560682#1 -111560682#1 -111560682#0"/>
    </vehicle>
    <vehicle id="driver_118" depart="2.00" departPos="58.93">
        <route edges="-287958606#4 -287958606#3 224316521#0 224316521#1"/>
    </vehicle>
    <vehicle id="driver_119" depart="2.00" departPos="18.95">
        <route edges="85562546#0 -85562546#0 287133786 -85562590#1 -85562590#0 -85562521 85562498#0 85562498#1 514527343#0 514527343#1 -85562560"/>
    </vehicle>
    <vehicle id="driver_120" depart="2.00" departPos="31.59">
        <route edges="26276984#7 -26276984#7 -26276984#6 -26276984#5 -26276984#4 -26276984#3 -26276984#2 -26276984#1 8919610#0 8919610#1 8919431"/>
    </vehicle>
    <vehicle id="driver_121" depart="2.00" departPos="23.59">
        <route edges="254968948#1 514840539 8919790#0 8919790#1 28694482#0 -32065924#1 -32065924#0"/>
    </vehicle>
    <vehicle id="driver_122" depart="2.00" departPos="74.56">
        <route edges="-1004402910 -442572413 -674189179#1 674189179#1"/>
    </vehicle>
    <vehicle id="driver_123" depart="2.00" departPos="14.09">
        <route edges="406944778 254297764 721174655 -721174653 -111586254 28841123"/>
    </vehicle>
    <vehicle id="driver_124" depart="2.00" departPos="127.72">
        <route edges="991569426 -991569426 -68313662 8919994 991569427 970234622 8920218 970234623"/>
    </vehicle>
    <vehicle id="driver_125" depart="2.00" departPos="20.23">
        <route edges="8922887 -399883471#0 -399883470 -399883477 -399883472 32651283 399883475#0 399883475#1 -399883476 -27041291#1 -27041291#0 -27043624#1"/>
    </vehicle>
    <vehicle id="driver_126" depart="2.00" departPos="39.85">
        <route edges="-8921551#0 8917789 -8917789"/>
    </vehicle>
    <person id="customer_6" depart="3.00" departPos="11.14">
        <stop lane="736374827#0_0" duration="1000.00"/>
    </person>
    <vehicle id="driver_127" depart="3.00" departPos="33.80">
        <route edges="8916286#7 -8916286#7 -8916286#6 -8916286#5 -8916286#4 -8916286#3 -8916286#2 -8916286#1 -8916286#0 285975137#9 254968961#0 254968961#1 -254968961#1"/>
    </vehicle>
    <vehicle id="driver_128" depart="3.00" departPos="61.72">
        <route edges="147496080#0 -147496080#0 -8917360#2 -8919281#1 -8916280#3 -8916280#2"/>
    </vehicle>
    <vehicle id="driver_129" depart="3.00" departPos="93.48">
        <route edges="-255178040#1 -255178131#1"/>
    </vehicle>
    <vehicle id="driver_130" depart="3.00" departPos="0.10">
        <route edges="225520569#1 395804684 264872663 30642929 619535699 159766611#0 159766611#1 619568401 681660472#0 681660472#1 681660471#0 681660471#1 681660473 255351731 682797225 255351730 159778999#0 159778999#1 30642909#0 679075660 8916280#0 8916280#1"/>
    </vehicle>
    <vehicle id="driver_131" depart="3.00" departPos="17.62">
        <route edges="488579461 -488579461 8920852#0 255178050#4 -8920774"/>
    </vehicle>
    <vehicle id="driver_132" depart="3.00" departPos="69.91">
        <route edges="-8919527#1 278725686#4 8921019#1 8922325#3 -8922325#3"/>
    </vehicle>
    <vehicle id="driver_133" depart="3.00" departPos="16.66">
        <route edges="417962863#2 -417962863#2 -417962863#1 8921357 254759948#0 254759948#1 192369091 27397324 8919033"/>
    </vehicle>
    <vehicle id="driver_134" depart="3.00" departPos="21.89">
        <route edges="-27028344 -8916914 -225516712#2 8917665#0 377641658#1 377641658#2 377641658#3"/>
    </vehicle>
    <vehicle id="driver_135" depart="3.00" departPos="40.09">
        <route edges="449203885#1 -437535048#11 516569605#7 -437533751#9 -255351732#0 -255170287#1 -286186803#10"/>
    </vehicle>
    <vehicle id="driver_136" depart="3.00" departPos="63.37">
        <route edges="47174953 8916368#2 8916368#3 255170270#0 255351733#2 255351733#3 255351733#4 89812458#0 89812458#1"/>
    </vehicle>
    <vehicle id="driver_137" depart="3.00" departPos="78.86">
        <route edges="-8919145#0 23875517#1 192368989 927565713 415254522#0"/>
    </vehicle>
    <vehicle id="driver_138" depart="3.00" departPos="40.77">
        <route edges="8917253#1 -133440197 191010942#1 -191010942#1"/>
    </vehicle>
    <vehicle id="driver_139" depart="3.00" departPos="40.10">
        <route edges="-286265329#9 286265329#9 437535048#3 797673526#3 -437533751#2"/>
    </vehicle>
    <vehicle id="driver_140" depart="3.00" departPos="12.74">
        <route edges="-254971063#1 -46944761#1 694654073#1 -694654073#1"/>
    </vehicle>
    <vehicle id="driver_141" depart="3.00" departPos="87.42">
        <route edges="-45666368 -8919109 8919109 45666368 -27028605 -254971063#1 -46944761#1 -46944761#0 -275379096#0 -50621094#1 -254971073#0 -286668073#4"/>
    </vehicle>
    <vehicle id="driver_142" depart="3.00" departPos="31.56">
        <route edges="60501618 970235557 916495048 917310153 8917611 970235555 917310152 917310150 215848128 8917291 8917596#0 8917596#1 -215848120 -970235554 -215848110#1 -215848110#0 -254982295 -8921178"/>
    </vehicle>
    <vehicle id="driver_143" depart="3.00" departPos="81.82">
        <route edges="-155373682#0 155373682#0 8916683#5 -8918773#1"/>
    </vehicle>
    <vehicle id="driver_144" depart="3.00" departPos="46.90">
        <route edges="-133735882#0 133735882#0 -919204678#1 919204678#1"/>
    </vehicle>
    <vehicle id="driver_145" depart="3.00" departPos="33.13">
        <route edges="28950096#0 28950096#1 59799829 254968971 28950094 400904930#0 400904930#1 430754935 8918509#0"/>
    </vehicle>
    <vehicle id="driver_146" depart="3.00" departPos="25.10">
        <route edges="406944781 475457060 27167728 397165806#0 8917774#0 8917774#1 28575530#1 48959762 770868785"/>
    </vehicle>
    <vehicle id="driver_147" depart="3.00" departPos="87.58">
        <route edges="182668422 591746709 396954110#0 -467991737 467991737"/>
    </vehicle>
    <vehicle id="driver_148" depart="3.00" departPos="28.39">