<?xml version="1.0" encoding="UTF-8"?>

<!-- generated on 2022-10-16 22:38:57 by Eclipse SUMO duarouter Version v1_14_1+1085-1ed58b92c9a
<configuration xmlns:xsi="http://www.w3.org/2001/XMLSchema-instance" xsi:noNamespaceSchemaLocation="http://sumo.dlr.de/xsd/duarouterConfiguration.xsd">

    <input>
        <net-file value="./net_config/san-francisco.net.xml"/>
        <route-files value="./net_config/sf_sfcta_mobility.xml"/>
    </input>

    <output>
        <output-file value="./net_config/sf_sfcta_clean_mobility.rou.xml"/>
    </output>

    <processing>
        <repair value="true"/>
    </processing>

    <report>
        <ignore-errors value="true"/>
    </report>

</configuration>
-->

<routes xmlns:xsi="http://www.w3.org/2001/XMLSchema-instance" xsi:noNamespaceSchemaLocation="http://sumo.dlr.de/xsd/routes_file.xsd">
    <person id="customer_0" depart="0.00" departPos="65.36">
        <stop lane="311430149_0" duration="1000.00"/>
    </person>
    <person id="customer_1" depart="0.00" departPos="7.67">
        <stop lane="-397146709_0" duration="1000.00"/>
    </person>
    <vehicle id="driver_0" depart="0.00" departPos="28.23">
        <route edges="-133743839#5 133743839#5 -25398442#3 8916619#1 8916619#2 -8919940#2 8919940#2"/>
    </vehicle>
    <vehicle id="driver_1" depart="0.00" departPos="37.96">
        <route edges="8919657#0 306338105#3 8918955#2 120257660#1 797312341 797312340 -797312340"/>
    </vehicle>
    <person id="customer_2" depart="1.00" departPos="86.04">
        <stop lane="-42322500_0" duration="1000.00"/>
    </person>
    <person id="customer_3" depart="1.00" departPos="22.96">
        <stop lane="-739664234_0" duration="1000.00"/>
    </person>
    <vehicle id="driver_2" depart="1.00" departPos="58.16">
        <route edges="254299119 -254299119"/>
    </vehicle>
    <vehicle id="driver_3" depart="1.00" departPos="1.76">
        <route edges="8920624#0 -8920624#0 8917158#3 8917158#4 8917158#5 8917158#6 8917158#7 -214514829 -513660226"/>
    </vehicle>
    <vehicle id="driver_4" depart="1.00" departPos="16.50">
        <route edges="133748360#4 133748360#5 133748351#0 133748351#1"/>
    </vehicle>
    <vehicle id="driver_5" depart="1.00" departPos="61.92">
        <route edges="8917716#0 8914988#2 419643715#0 419643715#1 469422406 1052964001 23875567 -160300147 8914993 48446215 52308088 8919771#0 8919771#1 400104483#18 400104483#19 400104483#20 421875981 -421875981"/>
    </vehicle>
    <vehicle id="driver_6" depart="1.00" departPos="6.56">
        <route edges="-488136599 -1034015984#2 -8920346#0 -254750804"/>
    </vehicle>
    <vehicle id="driver_7" depart="1.00" departPos="52.15">
        <route edges="-192552506#1 -192552506#0"/>
    </vehicle>
    <vehicle id="driver_8" depart="1.00" departPos="115.81">
        <route edges="27028602#0 -46944760#0 694654073#2 -286668072"/>
    </vehicle>
    <vehicle id="driver_9" depart="1.00" departPos="176.51">
        <route edges="8916881 681758083 8916841 148899306#0 148899306#1 148899306#2 -8918946 -148899311#1 -8915595#0"/>
    </vehicle>
    <vehicle id="driver_10" depart="1.00" departPos="151.30">
        <route edges="8919410 -8919410 8917609#1 8917609#2 978912139 528123633 -133735880#1 -133735880#0"/>
    </vehicle>
    <vehicle id="driver_11" depart="1.00" departPos="0.56">
        <route edges="89802405#19 -89802405#19 -89802405#18 761340401#8 -544456547#14 -437541662#0"/>
    </vehicle>
    <vehicle id="driver_12" depart="1.00" departPos="34.95">
        <route edges="-254759964#2 254759964#2 133856290 133856291 -120257664#1 -120257664#0 -8918883#1 8917248#1 -930588346#3 -215968721#1"/>
    </vehicle>
    <vehicle id="driver_13" depart="1.00" departPos="0.58">
        <route edges="512656656#0 512656656#1 154647386#0 154647386#1 -521514785#1"/>
    </vehicle>
    <vehicle id="driver_14" depart="1.00" departPos="1.62">
        <route edges="-396980731#0 396980731#0 396980731#1 254750798#0 254750798#1 417108191 415222967#0 415222967#1 -415222967#1"/>
    </vehicle>
    <vehicle id="driver_15" depart="1.00" departPos="0.17">
        <route edges="-158468969 158468969 158468953 396962030 396962028 396962027 762957922 158468959 396962024 762957920 -158468965 158468958 762957921"/>
    </vehicle>
    <vehicle id="driver_16" depart="1.00" departPos="38.16">
        <route edges="26940502#6 26940502#7 26940502#8 26940502#9 26940502#10"/>
    </vehicle>
    <vehicle id="driver_17" depart="1.00" departPos="0.41">
        <route edges="585655708#5 585655708#6 -717639971 12247498#1 12247498#2 414979751#0 414979751#1 414979751#2"/>
    </vehicle>
    <vehicle id="driver_18" depart="1.00" departPos="0.05">
        <route edges="397135729#2 397135729#3 502795940#3 27166444#0 27166444#1 968937450#0 968937450#1 968937453 254758126#0 254758126#1 254758115#3 254758115#4"/>
    </vehicle>
    <vehicle id="driver_19" depart="1.00" departPos="1.81">
        <route edges="-144346316#6 -144346316#5 -144346316#4 -144346316#3 26988009#0 26988009#1 26988009#2 26988009#3 254758115#0 254758115#1 254758115#2 254758126#2 254758126#3 408572569 397136324#0"/>
    </vehicle>
    <vehicle id="driver_20" depart="1.00" departPos="98.07">
        <route edges="-468450103#6 468450103#6 468450103#7 30831652#0 30831652#1 475767105#0 8916386#0 -8916386#0"/>
    </vehicle>
    <vehicle id="driver_21" depart="1.00" departPos="63.17">
        <route edges="461084153#5 29059495#1 29059495#2 91182066#0 91182066#1 91182066#2 513676833#0"/>
    </vehicle>
    <vehicle id="driver_22" depart="1.00" departPos="0.05">
        <route edges="713758731#0 713758731#1 85644912#5 133376117#0"/>
    </vehicle>
    <vehicle id="driver_23" depart="1.00" departPos="36.93">
        <route edges="255178154#0 8918628#2"/>
    </vehicle>
    <vehicle id="driver_24" depart="1.00" departPos="0.25">
        <route edges="-516569605#3 -516569605#2 255170284#3"/>
    </vehicle>
    <vehicle id="driver_25" depart="1.00" departPos="2.53">
        <route edges="-8918051#4 -225516718#1 -225516718#0 225516726 225516727#0 133856225#1 -367180256#1 -367180256#0"/>
    </vehicle>
    <vehicle id="driver_26" depart="1.00" departPos="5.72">
        <route edges="255178055#3 255178055#4"/>
    </vehicle>
    <vehicle id="driver_27" depart="1.00" departPos="25.53">
        <route edges="675892535#1 -675892535#1 -675892535#0 -675892533 -675892532#1 -675892532#0 -675892531 -676716698#1 -676716698#0 27239315#0 27239315#1 680103306 -680103306 -27239315#1 -27239315#0"/>
    </vehicle>
    <vehicle id="driver_28" depart="1.00" departPos="32.03">
        <route edges="-430952067 -430952066 -437435584#0 89802405#2 544456548#1"/>
    </vehicle>
    <vehicle id="driver_29" depart="1.00" departPos="36.06">
        <route edges="-681276011 -945294695#2 -945294695#1 -945294695#0 945294695#0 945294695#1"/>
    </vehicle>
    <vehicle id="driver_30" depart="1.00" departPos="38.81">
        <route edges="89802405#5 -89802405#5 -89802405#4 -437436468#1"/>
    </vehicle>
    <vehicle id="driver_31" depart="1.00" departPos="23.56">
        <route edges="-417384991#1 -417384991#0 32928950#0 32928950#1 32928950#2 32928950#3"/>
    </vehicle>
    <vehicle id="driver_32" depart="1.00" departPos="0.10">
        <route edges="397127922#0 397127922#1 397127921 408591443#0 408591443#1 214545530#0 214545530#1 8920281#1 -8920934 1064350475 617268040#0"/>
    </vehicle>
    <vehicle id="driver_33" depart="1.00" departPos="147.09">
        <route edges="-8916788 143617585 513704344 -607903509 -417396848#2 8922291#0 8922291#1 8922291#2 408600296 417396782#0 417396782#1 8915151 31609103 876616474 845978827"/>
    </vehicle>
    <vehicle id="driver_34" depart="1.00" departPos="0.15">
        <route edges="620169772 417396768#0 417396768#1 25758528#0 25758528#1 850242478#0 850242478#1 397146078#0 397146078#1 107674371#0 107674371#1 107674371#2 47172784"/>
    </vehicle>
    <vehicle id="driver_35" depart="1.00" departPos="0.85">
        <route edges="-27512075#3 27512075#3 516940749#0 516940749#1 516940749#2 -722638993"/>
    </vehicle>
    <vehicle id="driver_36" depart="1.00" departPos="0.18">
        <route edges="397145821#0 397145821#1 934261704 397145254#0 397145254#1 397145255#0 397145255#1 8920281#0 -214545530#1 -214545530#0 617990571#0"/>
    </vehicle>
    <vehicle id="driver_37" depart="1.00" departPos="141.99">
        <route edges="-8917958#0 -514524732 -254750797#1 8918605#0"/>
    </vehicle>
    <vehicle id="driver_38" depart="1.00" departPos="0.13">
        <route edges="417699601#1 513153500 133781793#0 133781793#1 133781793#2 512283895#3 91181762#0"/>
    </vehicle>
    <vehicle id="driver_39" depart="1.00" departPos="78.99">
        <route edges="-8917382#4 8917382#4"/>
    </vehicle>
    <vehicle id="driver_40" depart="1.00" departPos="0.19">
        <route edges="-88559669#0 88559669#0 88559669#1 88559669#2 88597577#0 88597577#1 767935507 417101702#0 417101702#1 224384019#0 224384019#1 224384019#2 8918656#0 8918656#1 328876704 736374827#0"/>
    </vehicle>
    <vehicle id="driver_41" depart="1.00" departPos="18.22">
        <route edges="-417099350 8921866 681183503 417099347#0 417099347#1 28841121#0 28841121#1"/>
    </vehicle>
    <vehicle id="driver_42" depart="1.00" departPos="37.11">
        <route edges="377646102 627706100 425516613#0 425516613#1"/>
    </vehicle>
    <vehicle id="driver_43" depart="1.00" departPos="1.09">
        <route edges="8917425 397108536#0 397108536#1 397108534 397108535 978694795#0 978694795#1 978694795#2 -88463830 -242896157#1 -242896157#0 -673985340#1 -673985340#0 397140312#0"/>
    </vehicle>
    <vehicle id="driver_44" depart="1.00" departPos="1.38">
        <route edges="673985341#2 -673985341#2 -673985341#1 -673985341#0 -397108533#1 -397108533#0 -27397692#1 -27397692#0 27397692#0 27397692#1"/>
    </vehicle>
    <vehicle id="driver_45" depart="1.00" departPos="27.99">
        <route edges="425516652#1 721674319 598020858#0"/>
    </vehicle>
    <vehicle id="driver_46" depart="1.00" departPos="33.82">
        <route edges="-425516678#0 425516678#0 425516678#1 500871824#2 500871824#3 -254299112#3 -254299112#2 -254299112#1 -254299112#0 -425516680#1"/>
    </vehicle>
    <vehicle id="driver_47" depart="1.00" departPos="0.72">
        <route edges="34128471#2 -34128471#2 -34128471#1 -34128471#0 8917984#0 8917984#1 8917984#2 -659132495#1 -659132495#0 -27400588 27400588 659132495#0 659132495#1"/>
    </vehicle>
    <vehicle id="driver_48" depart="1.00" departPos="54.36">
        <route edges="8920737 8922604#0 -86331207#2 -474114140 8921203 8918480 162324915 8921596 620728100 287721642#0 -8922353 8918927"/>
    </vehicle>
    <vehicle id="driver_49" depart="1.00" departPos="15.46">
        <route edges="61600891 590142590 -61600870 -8916969#1 -8916969#0 415497728 27433016#0 27433016#1 254308546 397115548 515859661 8917847 133755926#0 133755926#1 706059877 133755889#0 -8918932#0"/>
    </vehicle>
    <vehicle id="driver_50" depart="1.00" departPos="36.98">
        <route edges="-879767620#2 -8921508#2 -8921508#1 -8921508#0"/>
    </vehicle>
    <vehicle id="driver_51" depart="1.00" departPos="500.19">
        <route edges="-8918118#0 -417389716 123660741"/>
    </vehicle>
    <person id="customer_4" depart="2.00" departPos="51.91">
        <stop lane="619568432_0" duration="1000.00"/>
    </person>
    <vehicle id="driver_52" depart="2.00" departPos="36.80">
        <route edges="37573546#0 37573546#1 -37573546#1 -37573546#0 513661652 8919041 133748411 619433018 8915487 691769812 43759508"/>
    </vehicle>
    <vehicle id="driver_53" depart="2.00" departPos="12.29">
        <route edges="-8916547#5 -8916547#4 8916547#4"/>
    </vehicle>
    <vehicle id="driver_54" depart="2.00" departPos="28.44">
        <route edges="-8919927#1 8919927#1"/>
    </vehicle>
    <vehicle id="driver_55" depart="2.00" departPos="18.39">
        <route edges="514550010#6 286438009#1 286438009#2 286438009#3 -286438009#3"/>
    </vehicle>
    <vehicle id="driver_56" depart="2.00" departPos="34.70">
        <route edges="255178127#0 8920573#2 -8920573#2"/>
    </vehicle>
    <vehicle id="driver_57" depart="2.00" departPos="37.97">
        <route edges="-254305031#2 -306788551#1 8919106#1 8919106#2 773798182"/>
    </vehicle>
    <vehicle id="driver_58" depart="2.00" departPos="24.70">
        <route edges="8917704 -8919980#1 -8919980#0 -948240907 -8918929 -133743839#0 -8920071#3 -8920071#2 -8920071#1 -8920071#0 8921086#0 8921086#1 8921086#2 8921086#3 8914988#0 8914988#1 8914988#2 419643715#0 419643715#1 469422406 1052964001 23875567 619568426#0 619568426#1 619568426#2 133743844 30757764#0 30757764#1 682301416 550418599#0 550418599#1 514600598#0 514600598#1 37406169 -237041620 -37406163#1 -37406163#0 8915163 29394019 29394023 31487920 31487921 929581153 28715659"/>
    </vehicle>
    <vehicle id="driver_59" depart="2.00" departPos="33.12">
        <route edges="-8921765#1 -8918746#1 222818885 222818884#1 397040125 222818889 8918917#4 222832809#1"/>
    </vehicle>
    <vehicle id="driver_60" depart="2.00" departPos="11.68">
        <route edges="217358402 -217358402 -27028350 27028349#0 27028349#1 133781862 -27145608#2 -27145608#1 -27145608#0 27145608#0"/>
    </vehicle>
    <vehicle id="driver_61" depart="2.00" departPos="30.46">
        <route edges="-505817935#0 -255170259 -8916368#3 -8916368#2 -8916368#1 158624832"/>
    </vehicle>
    <vehicle id="driver_62" depart="2.00" departPos="98.43">
        <route edges="935795984#0 -935795984#0 -26378106#2 -26378106#1 26378106#1"/>
    </vehicle>
    <vehicle id="driver_63" depart="2.00" departPos="2.58">
        <route edges="-8917929#4 -8917929#3 437535048#6 -8920491#4 8920491#4"/>
    </vehicle>
    <vehicle id="driver_64" depart="2.00" departPos="109.12">
        <route edges="29482568#1 -110800713#3 -110800713#2 -110800713#1 110800713#1"/>
    </vehicle>
    <vehicle id="driver_65" depart="2.00" departPos="8.42">
        <route edges="-417389556 -417389583#2 -417389583#1 -417389583#0 -772927006#1 -772927006#0 -772926391 -285979102 -514479286 -514479287 -772926389 -254750814#2 -254750814#1 254750814#1 254750814#2 772926389 514479287 -772926390#1 -772926390#0 -706555128#5 -706555128#4"/>
    </vehicle>
    <vehicle id="driver_66" depart="2.00" departPos="32.83">
        <route edges="-254759931#1 -254759931#0 -254760012#0 397125842 397125836#0"/>
    </vehicle>
    <vehicle id="driver_67" depart="2.00" departPos="13.07">
        <route edges="1032595379#0 1032595379#1 1032595379#2 1032595379#3"/>
    </vehicle>
    <vehicle id="driver_68" depart="2.00" departPos="76.78">
        <route edges="112408723#4 306338104#2 -306338104#2"/>
    </vehicle>
    <vehicle id="driver_69" depart="2.00" departPos="3.59">
        <route edges="24335460#0 24335460#1 8919164#0 -32121422#0 32121425#0 -32121425#0"/>
    </vehicle>
    <vehicle id="driver_70" depart="2.00" departPos="15.98">
        <route edges="158804433 396948935 396948936 158804445 396950823 396950804 681479545 158804430 396950821"/>
    </vehicle>
    <vehicle id="driver_71" depart="2.00" departPos="0.66">
        <route edges="-263855294#1 -263855294#0 -417087458 -680955161#1 -680955161#0 -254759942#1 -254759942#0 254759942#0 254759942#1 680955161#0"/>
    </vehicle>
    <vehicle id="driver_72" depart="2.00" departPos="40.00">
        <route edges="396950802 158804440 8919402#4 396950805 -158804455"/>
    </vehicle>
    <vehicle id="driver_73" depart="2.00" departPos="1.23">
        <route edges="-25372932#4 -25372932#3 425516617#6 425516617#7 425516617#8 425516617#9 425516617#10 425516617#11 425516617#12 86303732#0 86303732#1 86303732#2 27398045#0 27398045#1"/>
    </vehicle>
    <vehicle id="driver_74" depart="2.00" departPos="8.05">
        <route edges="713493921 148902179#0 -148902179#0 -713493921 -713493922 30831609 -398464710#1"/>
    </vehicle>
    <vehicle id="driver_75" depart="2.00" departPos="5.63">
        <route edges="681758090 27050841#0 27050841#1 -27050841#1 -27050841#0 -681758090 -398849856 -399142440#9 -399142440#8 8920741 26938293#0 -26938418#0"/>
    </vehicle>
    <vehicle id="driver_76" depart="2.00" departPos="69.82">
        <route edges="399215884#0 -399215884#0 28805059#2 28805008"/>
    </vehicle>
    <vehicle id="driver_77" depart="2.00" departPos="123.71">
        <route edges="48435259#2 -48435259#2 147415742#0 147415742#1 158635462 23873716#1 23873716#2 -758026837#1"/>
    </vehicle>
    <vehicle id="driver_78" depart="2.00" departPos="1.68">
        <route edges="396959985 396959982 133748354 344209405"/>
    </vehicle>
    <vehicle id="driver_79" depart="2.00" departPos="22.13">
        <route edges="-255178150#3 255178150#3 711636459#7 -133856289 28572351 417975455 417276706#0 417276706#1 417276706#2 286180034#0"/>
    </vehicle>
    <vehicle id="driver_80" depart="2.00" departPos="0.80">
        <route edges="255170265#0 -255170265#0"/>
    </vehicle>
    <vehicle id="driver_81" depart="2.00" departPos="5.09">
        <route edges="-8916549 255166630#2 255178052 8920769#0"/>
    </vehicle>
    <vehicle id="driver_82" depart="2.00" departPos="43.70">
        <route edges="89802414#10 -255178171#1 683038356#2 -683038356#2"/>
    </vehicle>
    <vehicle id="driver_83" depart="2.00" departPos="137.17">
        <route edges="225854642#0 225854642#1 225516698 397094768#0 397094768#1 681479553"/>
    </vehicle>
    <vehicle id="driver_84" depart="2.00" departPos="60.47">
        <route edges="8917542#1 8917542#2 546325023"/>
    </vehicle>
    <vehicle id="driver_85" depart="2.00" departPos="114.23">
        <route edges="-32949491#5 465209329#10 465209329#11 -465209329#11"/>
    </vehicle>
    <vehicle id="driver_86" depart="2.00" departPos="1.33">
        <route edges="-27092233#8 27092233#8 437557845#4 225806045#6 -32949491#3"/>
    </vehicle>
    <vehicle id="driver_87" depart="2.00" departPos="16.84">
        <route edges="678504817 437559563 437559492#0 437559492#1 437559251#0 437559251#1 -8917663#1"/>
    </vehicle>
    <vehicle id="driver_88" depart="2.00" departPos="14.04">
        <route edges="-814617627#6 814617627#6"/>
    </vehicle>
    <vehicle id="driver_89" depart="2.00" departPos="96.49">
        <route edges="-34129168 -515461612 417315289 112470382#0 -721739165#0"/>
    </vehicle>
    <vehicle id="driver_90" depart="2.00" departPos="31.45">
        <route edges="-864000411 -864000412 -444226179 -158602258 158602258 444226179 864000412 864000411 8922015 137812985 137812984 444491365 137812981 444491367 444491375 444116277 513937858 137812997 1060530335 514610065 137813001 602454410 370954792 370954791 28136777 28136772 133733584 32928873 742257632 742257631 -879182438 -742257634 -225853143 -396980732 -396980733#1 -396980733#0 -514412272 -225853142#1 -225853142#0 -415222967#1 -415222967#0 -417108191 -254750798#1 -254750798#0 -396980731#1 -396980731#0 -162799061#5 -162799061#4 -162799061#3 -162799061#2 -162799061#1 -162799061#0 -619378851#1 619378851#1"/>
    </vehicle>
    <vehicle id="driver_91" depart="2.00" departPos="14.30">
        <route edges="1043462454 26297408#0 -8917188 191296171#1 191296171#2"/>
    </vehicle>
    <vehicle id="driver_92" depart="2.00" departPos="23.49">
        <route edges="108389184 -108389184 -87235204#4 -87235204#3 -158804456#3"/>
    </vehicle>
    <vehicle id="driver_93" depart="2.00" departPos="0.06">
        <route edges="396951397#1 396937570#0 396937570#1 769990217 769990216 1064316037 255330069 681676491#0 681676491#1 -681295116#1 -681295116#0 -739664234 -143617587 143617587 739664234"/>
    </vehicle>
    <vehicle id="driver_94" depart="2.00" departPos="131.78">
        <route edges="22277701 27659857 394443193 27432750 27669012 -417400699 -247966218#5 -247966218#4 -247966218#3 -247966218#2 -247966218#1 -247966218#0 -417400703 -417400697 157812260 762797322#0 762797322#1 28518571#0 28518571#1 28518571#2 -28518571#2"/>
    </vehicle>
    <vehicle id="driver_95" depart="2.00" departPos="0.01">
        <route edges="-8916324#0 8916324#0 31148625#1 31148625#2 31148625#3 -101153942#3 -101153942#2 -101153942#1 -101153942#0 -396985968#1 -396985968#0 -738077881 738000217#0 738000217#1 739601030#0 8919914#0 8919914#1 8919914#2 399590025#1 399590026 8919913"/>
    </vehicle>
    <vehicle id="driver_96" depart="2.00" departPos="1.21">
        <route edges="-512283895#2 -512283895#1 -512283895#0 -224316516#2 -224316516#1 -224316516#0 224316516#0"/>
    </vehicle>
    <vehicle id="driver_97" depart="2.00" departPos="0.15">
        <route edges="1032777739#1 797255352#7 797255352#8 417094964 397135724"/>
    </vehicle>
    <vehicle id="driver_98" depart="2.00" departPos="45.45">
        <route edges="-60862882 -958538679 8916951 224199023#0 224199023#1 224199012"/>
    </vehicle>
    <vehicle id="driver_99" depart="2.00" departPos="1.76">
        <route edges="-736359898 -633791726 -88559691#3 -88559691#2"/>
    </vehicle>
    <vehicle id="driver_100" depart="2.00" departPos="1.06">
        <route edges="934194966#1 111560680#0 111560680#1 51392402 771701157 51392400#0 51392400#1 -721726242 -85789166 -688508137#1 -688508137#0 -365816000#1 -365816000#0 -619979101 -225806043#1 -225806043#0 -772972816 1024537343 225806056#0 225806056#1 777343790"/>
    </vehicle>
    <vehicle id="driver_101" depart="2.00" departPos="31.28">
        <route edges="28841122 721174652 -721174652 -28841122 28841120 721174654"/>
    </vehicle>
    <vehicle id="driver_102" depart="2.00" departPos="5.94">
        <route edges="179235223#0 179235223#1 135110258 617731322 179235224 43100086#0 43100086#1 43100086#2 -43100086#2 -43100086#1 -43100086#0 -179235224 -617731322 -135110258"/>
    </vehicle>
    <vehicle id="driver_103" depart="2.00" departPos="73.38">
        <route edges="47108401#1 519998120#0 668004665"/>
    </vehicle>
    <vehicle id="driver_104" depart="2.00" departPos="30.82">
        <route edges="-254971056#1 -254971056#0 254971056#0 254971056#1 254971056#2"/>
    </vehicle>
    <vehicle id="driver_105" depart="2.00" departPos="34.38">
        <route edges="-706545921#1 706545922#1 1050287140 1050287139 706545923#0 706545923#1 -224384010#2"/>
    </vehicle>
    <vehicle id="driver_106" depart="2.00" departPos="1.19">
        <route edges="417099355 417000954 359898623#0 359898623#1 359898622#0 359898622#1 -1041093696 -8918994 417099361#0 417099361#1 1041093698"/>
    </vehicle>
    <vehicle id="driver_107" depart="2.00" departPos="44.96">
        <route edges="396935396 396935405 997431145"/>
    </vehicle>
    <vehicle id="driver_108" depart="2.00" departPos="48.35">
        <route edges="-133856295 133856295 8921647 620728107 467987714 8922321 -8922321 -467987714 -620728107 -8921647"/>
    </vehicle>
    <vehicle id="driver_109" depart="2.00" departPos="7.08">
        <route edges="-8916376#2 -48208048#0 48208151#2 -48207955 48208052#1 48208052#2 -225808832 -28694178#1 -28694178#0 440850330#1 28694386 440850321 28694401 619535724 48208266 -891335056#1 -891335056#0 397130508 -339045940#2 339045940#0 339045940#1"/>
    </vehicle>
    <vehicle id="driver_110" depart="2.00" departPos="0.51">
        <route edges="396960684#1 396960684#2 32396142 417392943#0 417392943#1 -681496207#1 -681496207#0 -681496206 -82487553#3 -82487553#2 -82487553#1 -82487553#0 82487553#0 82487553#1 82487553#2"/>
    </vehicle>
    <vehicle id="driver_111" depart="2.00" departPos="7.23">
        <route edges="242940298 417099315#0 417099315#1 225432462#0 225432462#1 225432462#2"/>
    </vehicle>
    <person id="customer_5" depart="3.00" departPos="0.34">
        <stop lane="-228196396#0_0" duration="1000.00"/>
    </person>
    <vehicle id="driver_112" depart="3.00" departPos="99.68">
        <route edges="147496080#3 -147496080#3 -8916531 -147496082#2 -8916547#7 8916631"/>
    </vehicle>
    <vehicle id="driver_113" depart="3.00" departPos="184.00">
        <route edges="-27434949#3 -133748360#1 -133748360#0 -468556882#1 -8920820#1 -419643693#0 419643693#0"/>
    </vehicle>
    <vehicle id="driver_114" depart="3.00" departPos="7.57">
        <route edges="-8919208#1 -8919208#0 8919208#0 8919208#1 8919208#2 8919208#3 8919208#4 8919208#5 -8920054#3 813989742#4 -8919712#2"/>
    </vehicle>
    <vehicle id="driver_115" depart="3.00" departPos="5.99">
        <route edges="-755816410 755816410 679078836#0 679078836#1 679078849#0 679078849#1 679078849#2 286345445#0 286345445#1 286345445#2 286345445#3 8922009#0 8922009#1 -8917937#0"/>
    </vehicle>
    <vehicle id="driver_116" depart="3.00" departPos="141.31">
        <route edges="957918475#0 -957918475#0 -8922294#2 -8922294#1 -8920914#0 96790648#1 -48201560#0 254299134 1049992114 418522265 254299111 254299110#0 254299110#1 397266203"/>
    </vehicle>
    <vehicle id="driver_117" depart="3.00" departPos="30.99">
        <route edges="225840336#3 225840336#4 225840336#5 257599605#0 257599605#1 396957155#0 396957155#1 396957154 -397160212"/>
    </vehicle>
    <vehicle id="driver_118" depart="3.00" departPos="17.86">
        <route edges="27028360#3 -192552300#6 -192552300#5 -192552300#4 162812824#2 -225518511#1 -225518511#0 225518510"/>
    </vehicle>
    <vehicle id="driver_119" depart="3.00" departPos="19.49">
        <route edges="27028588#1 -27028588#1 27028615#3 27028615#4 -27028615#4"/>
    </vehicle>
    <vehicle id="driver_120" depart="3.00" departPos="0.13">
        <route edges="286672835#4 286672835#5 286672835#6 191010941#1"/>
    </vehicle>
    <vehicle id="driver_121" depart="3.00" departPos="0.41">
        <route edges="254299728#3 254299728#4 619568411#0 619568411#1 -619568411#1 -619568411#0 -254299728#4 -254299728#3 -1034016053#0 -155373675#9 -970790500#6"/>
    </vehicle>
    <vehicle id="driver_122" depart="3.00" departPos="0.38">
        <route edges="-514452165#0 -514452166 -514456309 -286674169 -514456307 -514461305 -286673287 970790469 514461306#0 437195318"/>
    </vehicle>
    <vehicle id="driver_123" depart="3.00" departPos="26.64">
        <route edges="306338107#3 -779712671 254759912#2 47161085 44670366#1"/>
    </vehicle>
    <vehicle id="driver_124" depart="3.00" departPos="34.42">
        <route edges="-8919164#3 32121432#1 225432458 225432459#0 -225432459#0"/>
    </vehicle>
    <vehicle id="driver_125" depart="3.00" departPos="0.27">
        <route edges="417699603#1 398681182#4 287658940#7 287658940#8 417699605#0 417699605#1 417699613#0 417699613#1 620247387#1 620247387#2"/>
    </vehicle>
    <vehicle id="driver_126" depart="3.00" departPos="0.09">
        <route edges="8920021#2 318094348 396945627#0 -8919398#1 -8919398#0"/>
    </vehicle>
    <vehicle id="driver_127" depart="3.00" departPos="120.39">
        <route edges="86331210 -396960303 -254466688#4 -254466688#3 -254466688#2 -254466688#1"/>
    </vehicle>
    <vehicle id="driver_128" depart="3.00" departPos="21.87">
        <route edges="-28841115#1 -28841115#0 28841115#0 28841115#1 28841115#2 329596844#2 329596844#3 329596844#4 674757877#0 674757877#1 502795940#0 502795940#1 27166466#2 27166466#3"/>
    </vehicle>
    <vehicle id="driver_129" depart="3.00" departPos="0.10">
        <route edges="-399142440#9 -399142440#8 -399142440#7 -399142440#6 26938418#3 26938418#4 26938418#5 770522136#0 770522136#1 -770522136#1"/>
    </vehicle>
    <vehicle id="driver_130" depart="3.00" departPos="7.47">
        <route edges="588340584 588340583"/>
    </vehicle>
    <vehicle id="driver_131" depart="3.00" departPos="0.16">
        <route edges="87376669#0 87376669#1 48211960#0 48211960#1 87376679 406580281#0 406580281#1 514675663 87376703#0 87376703#1 -87376703#1 -87376703#0 -514675663 -406580281#1 -406580281#0"/>
    </vehicle>
    <vehicle id="driver_132" depart="3.00" departPos="40.99">
        <route edges="30030485#0 -425516661#1 425516654#1 -91185869"/>
    </vehicle>
    <vehicle id="driver_133" depart="3.00" departPos="11.97">
        <route edges="514150748 133354894 284557508 396938387#0 396938387#1 396937790#0 396937790#1 396937790#2 23825731 396937791 404851867 396937789 408602003 91797303 91797304 513892035 396937787 28573493 1059789027 -404847816#1 -404847816#0 404847816#0 404847816#1"/>
    </vehicle>
    <vehicle id="driver_134" depart="3.00" departPos="52.84">
        <route edges="-133856293#1 -133856293#0 529817781"/>
    </vehicle>
    <vehicle id="driver_135" depart="3.00" departPos="26.14">
        <route edges="679788130 679788132#0 679788132#1 679788114 619568414 255166637#0 255166637#1 514630076#0 514630076#1 283526872 283526871#0 283526871#1 396983469#0 396983469#1 396983469#2 106046467#0 106046467#1 106046467#2 106046467#3 -283526874 283526873#0"/>
    </vehicle>
    <vehicle id="driver_136" depart="3.00" departPos="15.13">
        <route edges="-680108174 -397077937 -8918078 8919969#0 8919969#1 8919969#2 468458038 -8919099#3 -8919099#2 -8919099#1 -8920554 8920554"/>
    </vehicle>
    <vehicle id="driver_137" depart="3.00" departPos="47.26">
        <route edges="-8917662#0 8917662#0 8917662#1"/>
    </vehicle>
    <vehicle id="driver_138" depart="3.00" departPos="180.96">
        <route edges="676602506 836178583 676099861 676602505 155963035#0 255351723#1 255351723#2 255351723#3 255351724 255351716#0 255351716#1 255351716#2 397077939 397077940 437552470#0"/>
    </vehicle>
    <vehicle id="driver_139" depart="3.00" departPos="6.49">
        <route edges="254982315 136844195 49847744 515871770 676285191 262935937#0 262935937#1 -737961438 -8916685 29496465 -8921795#1 8919378 41367400#1 -297237979#2 -297237979#1 -297237979#0 -8917923#1 -8921562#5 -8921562#4 254759946#1 196950291#0"/>
    </vehicle>
    <vehicle id="driver_140" depart="3.00" departPos="0.18">
        <route edges="391862870#0 -391862870#0 -27028821 110797422 397130497 397130093#0 397130093#1 -397130093#1"/>
    </vehicle>
    <vehicle id="driver_141" depart="3.00" departPos="1.11">