<configuration>
    <input>
        <net-file value="sf.net.xml"/>
        <route-files value="../data/sf/mobility/sim/xml/mobility_simulator.rou.xml"/>
        <time-to-teleport value="0"/>
    </input>
    <time>
        <step-length value="1"/>
    </time>
    <gui_only>
        <gui-settings-file value="gui-settings.cfg"/>
    </gui_only>
</configuration>