<configuration>
    <input>
        <net-file value="san-francisco.net.xml"/>
        <route-files value="sf_sfcta_clean_mobility.rou.xml"/>
        <time-to-teleport value="0"/>
    </input>
    <time>
        <step-length value="1"/>
    </time>
    <gui_only>
        <gui-settings-file value="gui-settings.cfg"/>
    </gui_only>
</configuration>